
*** ChampSim Multicore Out-of-Order Simulator ***

Warmup Instructions: 2000000
Simulation Instructions: 5000000
Number of CPUs: 1
LLC sets: 2048
LLC ways: 16
Off-chip DRAM Size: 4096 MB Channels: 1 Width: 64-bit Data Rate: 1600 MT/s

CPU 0 runs ./tracefiles/astar313B.trace.xz
CPU 0 Bimodal branch predictor
xz: ./tracefiles/astar313B.trace.xz: No such file or directory
*** Reached end of trace for Core: 0 Repeating trace: ./tracefiles/astar313B.trace.xz
xz: ./tracefiles/astar313B.trace.xz: No such file or directory
*** Reached end of trace for Core: 0 Repeating trace: ./tracefiles/astar313B.trace.xz
xz: ./tracefiles/astar313B.trace.xz: No such file or directory
*** Reached end of trace for Core: 0 Repeating trace: ./tracefiles/astar313B.trace.xz
xz: ./tracefiles/astar313B.trace.xz: No such file or directory
*** Reached end of trace for Core: 0 Repeating trace: ./tracefiles/astar313B.trace.xz
xz: ./tracefiles/astar313B.trace.xz: No such file or directory
*** Reached end of trace for Core: 0 Repeating trace: ./tracefiles/astar313B.trace.xz
xz: ./tracefiles/astar313B.trace.xz: No such file or directory
*** Reached end of trace for Core: 0 Repeating trace: ./tracefiles/astar313B.trace.xz
xz: ./tracefiles/astar313B.trace.xz: No such file or directory
*** Reached end of trace for Core: 0 Repeating trace: ./tracefiles/astar313B.trace.xz
xz: ./tracefiles/astar313B.trace.xz: No such file or directory
*** Reached end of trace for Core: 0 Repeating trace: ./tracefiles/astar313B.trace.xz
xz: ./tracefiles/astar313B.trace.xz: No such file or directory
*** Reached end of trace for Core: 0 Repeating trace: ./tracefiles/astar313B.trace.xz
xz: ./tracefiles/astar313B.trace.xz: No such file or directory
*** Reached end of trace for Core: 0 Repeating trace: ./tracefiles/astar313B.trace.xz
xz: ./tracefiles/astar313B.trace.xz: No such file or directory
*** Reached end of trace for Core: 0 Repeating trace: ./tracefiles/astar313B.trace.xz
xz: ./tracefiles/astar313B.trace.xz: No such file or directory
*** Reached end of trace for Core: 0 Repeating trace: ./tracefiles/astar313B.trace.xz
xz: ./tracefiles/astar313B.trace.xz: No such file or directory
*** Reached end of trace for Core: 0 Repeating trace: ./tracefiles/astar313B.trace.xz
xz: ./tracefiles/astar313B.trace.xz: No such file or directory
*** Reached end of trace for Core: 0 Repeating trace: ./tracefiles/astar313B.trace.xz
xz: ./tracefiles/astar313B.trace.xz: No such file or directory
*** Reached end of trace for Core: 0 Repeating trace: ./tracefiles/astar313B.trace.xz
xz: ./tracefiles/astar313B.trace.xz: No such file or directory
*** Reached end of trace for Core: 0 Repeating trace: ./tracefiles/astar313B.trace.xz
xz: ./tracefiles/astar313B.trace.xz: No such file or directory
*** Reached end of trace for Core: 0 Repeating trace: ./tracefiles/astar313B.trace.xz
xz: ./tracefiles/astar313B.trace.xz: No such file or directory
*** Reached end of trace for Core: 0 Repeating trace: ./tracefiles/astar313B.trace.xz
xz: ./tracefiles/astar313B.trace.xz: No such file or directory
*** Reached end of trace for Core: 0 Repeating trace: ./tracefiles/astar313B.trace.xz
xz: ./tracefiles/astar313B.trace.xz: No such file or directory
*** Reached end of trace for Core: 0 Repeating trace: ./tracefiles/astar313B.trace.xz
xz: ./tracefiles/astar313B.trace.xz: No such file or directory
*** Reached end of trace for Core: 0 Repeating trace: ./tracefiles/astar313B.trace.xz
xz: ./tracefiles/astar313B.trace.xz: No such file or directory
*** Reached end of trace for Core: 0 Repeating trace: ./tracefiles/astar313B.trace.xz
xz: ./tracefiles/astar313B.trace.xz: No such file or directory
*** Reached end of trace for Core: 0 Repeating trace: ./tracefiles/astar313B.trace.xz
xz: ./tracefiles/astar313B.trace.xz: No such file or directory
*** Reached end of trace for Core: 0 Repeating trace: ./tracefiles/astar313B.trace.xz
xz: ./tracefiles/astar313B.trace.xz: No such file or directory
*** Reached end of trace for Core: 0 Repeating trace: ./tracefiles/astar313B.trace.xz
xz: ./tracefiles/astar313B.trace.xz: No such file or directory
*** Reached end of trace for Core: 0 Repeating trace: ./tracefiles/astar313B.trace.xz
xz: ./tracefiles/astar313B.trace.xz: No such file or directory
*** Reached end of trace for Core: 0 Repeating trace: ./tracefiles/astar313B.trace.xz
xz: ./tracefiles/astar313B.trace.xz: No such file or directory
*** Reached end of trace for Core: 0 Repeating trace: ./tracefiles/astar313B.trace.xz
xz: ./tracefiles/astar313B.trace.xz: No such file or directory
*** Reached end of trace for Core: 0 Repeating trace: ./tracefiles/astar313B.trace.xz
xz: ./tracefiles/astar313B.trace.xz: No such file or directory
*** Reached end of trace for Core: 0 Repeating trace: ./tracefiles/astar313B.trace.xz
xz: ./tracefiles/astar313B.trace.xz: No such file or directory
*** Reached end of trace for Core: 0 Repeating trace: ./tracefiles/astar313B.trace.xz
xz: ./tracefiles/astar313B.trace.xz: No such file or directory
*** Reached end of trace for Core: 0 Repeating trace: ./tracefiles/astar313B.trace.xz
xz: ./tracefiles/astar313B.trace.xz: No such file or directory
*** Reached end of trace for Core: 0 Repeating trace: ./tracefiles/astar313B.trace.xz
xz: ./tracefiles/astar313B.trace.xz: No such file or directory
*** Reached end of trace for Core: 0 Repeating trace: ./tracefiles/astar313B.trace.xz
xz: ./tracefiles/astar313B.trace.xz: No such file or directory
*** Reached end of trace for Core: 0 Repeating trace: ./tracefiles/astar313B.trace.xz
xz: ./tracefiles/astar313B.trace.xz: No such file or directory
*** Reached end of trace for Core: 0 Repeating trace: ./tracefiles/astar313B.trace.xz
xz: ./tracefiles/astar313B.trace.xz: No such file or directory
*** Reached end of trace for Core: 0 Repeating trace: ./tracefiles/astar313B.trace.xz
xz: ./tracefiles/astar313B.trace.xz: No such file or directory
*** Reached end of trace for Core: 0 Repeating trace: ./tracefiles/astar313B.trace.xz
xz: ./tracefiles/astar313B.trace.xz: No such file or directory
*** Reached end of trace for Core: 0 Repeating trace: ./tracefiles/astar313B.trace.xz
xz: ./tracefiles/astar313B.trace.xz: No such file or directory
*** Reached end of trace for Core: 0 Repeating trace: ./tracefiles/astar313B.trace.xz
xz: ./tracefiles/astar313B.trace.xz: No such file or directory
*** Reached end of trace for Core: 0 Repeating trace: ./tracefiles/astar313B.trace.xz
xz: ./tracefiles/astar313B.trace.xz: No such file or directory
*** Reached end of trace for Core: 0 Repeating trace: ./tracefiles/astar313B.trace.xz
xz: ./tracefiles/astar313B.trace.xz: No such file or directory
*** Reached end of trace for Core: 0 Repeating trace: ./tracefiles/astar313B.trace.xz
xz: ./tracefiles/astar313B.trace.xz: No such file or directory
*** Reached end of trace for Core: 0 Repeating trace: ./tracefiles/astar313B.trace.xz
xz: ./tracefiles/astar313B.trace.xz: No such file or directory
*** Reached end of trace for Core: 0 Repeating trace: ./tracefiles/astar313B.trace.xz
xz: ./tracefiles/astar313B.trace.xz: No such file or directory
*** Reached end of trace for Core: 0 Repeating trace: ./tracefiles/astar313B.trace.xz
xz: ./tracefiles/astar313B.trace.xz: No such file or directory
*** Reached end of trace for Core: 0 Repeating trace: ./tracefiles/astar313B.trace.xz
xz: ./tracefiles/astar313B.trace.xz: No such file or directory
*** Reached end of trace for Core: 0 Repeating trace: ./tracefiles/astar313B.trace.xz
xz: ./tracefiles/astar313B.trace.xz: No such file or directory
*** Reached end of trace for Core: 0 Repeating trace: ./tracefiles/astar313B.trace.xz
xz: ./tracefiles/astar313B.trace.xz: No such file or directory
*** Reached end of trace for Core: 0 Repeating trace: ./tracefiles/astar313B.trace.xz
xz: ./tracefiles/astar313B.trace.xz: No such file or directory
*** Reached end of trace for Core: 0 Repeating trace: ./tracefiles/astar313B.trace.xz
xz: ./tracefiles/astar313B.trace.xz: No such file or directory
*** Reached end of trace for Core: 0 Repeating trace: ./tracefiles/astar313B.trace.xz
xz: ./tracefiles/astar313B.trace.xz: No such file or directory
*** Reached end of trace for Core: 0 Repeating trace: ./tracefiles/astar313B.trace.xz
xz: ./tracefiles/astar313B.trace.xz: No such file or directory
*** Reached end of trace for Core: 0 Repeating trace: ./tracefiles/astar313B.trace.xz
xz: ./tracefiles/astar313B.trace.xz: No such file or directory
*** Reached end of trace for Core: 0 Repeating trace: ./tracefiles/astar313B.trace.xz
xz: ./tracefiles/astar313B.trace.xz: No such file or directory
*** Reached end of trace for Core: 0 Repeating trace: ./tracefiles/astar313B.trace.xz
xz: ./tracefiles/astar313B.trace.xz: No such file or directory
*** Reached end of trace for Core: 0 Repeating trace: ./tracefiles/astar313B.trace.xz
xz: ./tracefiles/astar313B.trace.xz: No such file or directory
*** Reached end of trace for Core: 0 Repeating trace: ./tracefiles/astar313B.trace.xz
xz: ./tracefiles/astar313B.trace.xz: No such file or directory
*** Reached end of trace for Core: 0 Repeating trace: ./tracefiles/astar313B.trace.xz
xz: ./tracefiles/astar313B.trace.xz: No such file or directory
*** Reached end of trace for Core: 0 Repeating trace: ./tracefiles/astar313B.trace.xz
xz: ./tracefiles/astar313B.trace.xz: No such file or directory
*** Reached end of trace for Core: 0 Repeating trace: ./tracefiles/astar313B.trace.xz
xz: ./tracefiles/astar313B.trace.xz: No such file or directory
*** Reached end of trace for Core: 0 Repeating trace: ./tracefiles/astar313B.trace.xz
xz: ./tracefiles/astar313B.trace.xz: No such file or directory
*** Reached end of trace for Core: 0 Repeating trace: ./tracefiles/astar313B.trace.xz
xz: ./tracefiles/astar313B.trace.xz: No such file or directory
*** Reached end of trace for Core: 0 Repeating trace: ./tracefiles/astar313B.trace.xz
xz: ./tracefiles/astar313B.trace.xz: No such file or directory
*** Reached end of trace for Core: 0 Repeating trace: ./tracefiles/astar313B.trace.xz
xz: ./tracefiles/astar313B.trace.xz: No such file or directory
*** Reached end of trace for Core: 0 Repeating trace: ./tracefiles/astar313B.trace.xz
xz: ./tracefiles/astar313B.trace.xz: No such file or directory
*** Reached end of trace for Core: 0 Repeating trace: ./tracefiles/astar313B.trace.xz
xz: ./tracefiles/astar313B.trace.xz: No such file or directory
*** Reached end of trace for Core: 0 Repeating trace: ./tracefiles/astar313B.trace.xz
xz: ./tracefiles/astar313B.trace.xz: No such file or directory
*** Reached end of trace for Core: 0 Repeating trace: ./tracefiles/astar313B.trace.xz
xz: ./tracefiles/astar313B.trace.xz: No such file or directory
*** Reached end of trace for Core: 0 Repeating trace: ./tracefiles/astar313B.trace.xz
xz: ./tracefiles/astar313B.trace.xz: No such file or directory
*** Reached end of trace for Core: 0 Repeating trace: ./tracefiles/astar313B.trace.xz
xz: ./tracefiles/astar313B.trace.xz: No such file or directory
*** Reached end of trace for Core: 0 Repeating trace: ./tracefiles/astar313B.trace.xz
xz: ./tracefiles/astar313B.trace.xz: No such file or directory
*** Reached end of trace for Core: 0 Repeating trace: ./tracefiles/astar313B.trace.xz
xz: ./tracefiles/astar313B.trace.xz: No such file or directory
*** Reached end of trace for Core: 0 Repeating trace: ./tracefiles/astar313B.trace.xz
xz: ./tracefiles/astar313B.trace.xz: No such file or directory
*** Reached end of trace for Core: 0 Repeating trace: ./tracefiles/astar313B.trace.xz
xz: ./tracefiles/astar313B.trace.xz: No such file or directory
*** Reached end of trace for Core: 0 Repeating trace: ./tracefiles/astar313B.trace.xz
xz: ./tracefiles/astar313B.trace.xz: No such file or directory
*** Reached end of trace for Core: 0 Repeating trace: ./tracefiles/astar313B.trace.xz
xz: ./tracefiles/astar313B.trace.xz: No such file or directory
*** Reached end of trace for Core: 0 Repeating trace: ./tracefiles/astar313B.trace.xz
xz: ./tracefiles/astar313B.trace.xz: No such file or directory
*** Reached end of trace for Core: 0 Repeating trace: ./tracefiles/astar313B.trace.xz
xz: ./tracefiles/astar313B.trace.xz: No such file or directory
*** Reached end of trace for Core: 0 Repeating trace: ./tracefiles/astar313B.trace.xz
xz: ./tracefiles/astar313B.trace.xz: No such file or directory
*** Reached end of trace for Core: 0 Repeating trace: ./tracefiles/astar313B.trace.xz
xz: ./tracefiles/astar313B.trace.xz: No such file or directory
*** Reached end of trace for Core: 0 Repeating trace: ./tracefiles/astar313B.trace.xz
xz: ./tracefiles/astar313B.trace.xz: No such file or directory
*** Reached end of trace for Core: 0 Repeating trace: ./tracefiles/astar313B.trace.xz
xz: ./tracefiles/astar313B.trace.xz: No such file or directory
*** Reached end of trace for Core: 0 Repeating trace: ./tracefiles/astar313B.trace.xz
xz: ./tracefiles/astar313B.trace.xz: No such file or directory
*** Reached end of trace for Core: 0 Repeating trace: ./tracefiles/astar313B.trace.xz
xz: ./tracefiles/astar313B.trace.xz: No such file or directory
*** Reached end of trace for Core: 0 Repeating trace: ./tracefiles/astar313B.trace.xz
xz: ./tracefiles/astar313B.trace.xz: No such file or directory
*** Reached end of trace for Core: 0 Repeating trace: ./tracefiles/astar313B.trace.xz
xz: ./tracefiles/astar313B.trace.xz: No such file or directory
*** Reached end of trace for Core: 0 Repeating trace: ./tracefiles/astar313B.trace.xz
xz: ./tracefiles/astar313B.trace.xz: No such file or directory
*** Reached end of trace for Core: 0 Repeating trace: ./tracefiles/astar313B.trace.xz
xz: ./tracefiles/astar313B.trace.xz: No such file or directory
*** Reached end of trace for Core: 0 Repeating trace: ./tracefiles/astar313B.trace.xz
xz: ./tracefiles/astar313B.trace.xz: No such file or directory
*** Reached end of trace for Core: 0 Repeating trace: ./tracefiles/astar313B.trace.xz
xz: ./tracefiles/astar313B.trace.xz: No such file or directory
*** Reached end of trace for Core: 0 Repeating trace: ./tracefiles/astar313B.trace.xz
xz: ./tracefiles/astar313B.trace.xz: No such file or directory
*** Reached end of trace for Core: 0 Repeating trace: ./tracefiles/astar313B.trace.xz
xz: ./tracefiles/astar313B.trace.xz: No such file or directory
*** Reached end of trace for Core: 0 Repeating trace: ./tracefiles/astar313B.trace.xz
xz: ./tracefiles/astar313B.trace.xz: No such file or directory
*** Reached end of trace for Core: 0 Repeating trace: ./tracefiles/astar313B.trace.xz
xz: ./tracefiles/astar313B.trace.xz: No such file or directory
*** Reached end of trace for Core: 0 Repeating trace: ./tracefiles/astar313B.trace.xz
xz: ./tracefiles/astar313B.trace.xz: No such file or directory
*** Reached end of trace for Core: 0 Repeating trace: ./tracefiles/astar313B.trace.xz
xz: ./tracefiles/astar313B.trace.xz: No such file or directory
*** Reached end of trace for Core: 0 Repeating trace: ./tracefiles/astar313B.trace.xz
xz: ./tracefiles/astar313B.trace.xz: No such file or directory
*** Reached end of trace for Core: 0 Repeating trace: ./tracefiles/astar313B.trace.xz
xz: ./tracefiles/astar313B.trace.xz: No such file or directory
*** Reached end of trace for Core: 0 Repeating trace: ./tracefiles/astar313B.trace.xz
xz: ./tracefiles/astar313B.trace.xz: No such file or directory
*** Reached end of trace for Core: 0 Repeating trace: ./tracefiles/astar313B.trace.xz
xz: ./tracefiles/astar313B.trace.xz: No such file or directory
*** Reached end of trace for Core: 0 Repeating trace: ./tracefiles/astar313B.trace.xz
xz: ./tracefiles/astar313B.trace.xz: No such file or directory
*** Reached end of trace for Core: 0 Repeating trace: ./tracefiles/astar313B.trace.xz
xz: ./tracefiles/astar313B.trace.xz: No such file or directory
*** Reached end of trace for Core: 0 Repeating trace: ./tracefiles/astar313B.trace.xz
xz: ./tracefiles/astar313B.trace.xz: No such file or directory
*** Reached end of trace for Core: 0 Repeating trace: ./tracefiles/astar313B.trace.xz
xz: ./tracefiles/astar313B.trace.xz: No such file or directory
*** Reached end of trace for Core: 0 Repeating trace: ./tracefiles/astar313B.trace.xz
xz: ./tracefiles/astar313B.trace.xz: No such file or directory
*** Reached end of trace for Core: 0 Repeating trace: ./tracefiles/astar313B.trace.xz
xz: ./tracefiles/astar313B.trace.xz: No such file or directory
*** Reached end of trace for Core: 0 Repeating trace: ./tracefiles/astar313B.trace.xz
xz: ./tracefiles/astar313B.trace.xz: No such file or directory
*** Reached end of trace for Core: 0 Repeating trace: ./tracefiles/astar313B.trace.xz
xz: ./tracefiles/astar313B.trace.xz: No such file or directory
*** Reached end of trace for Core: 0 Repeating trace: ./tracefiles/astar313B.trace.xz
xz: ./tracefiles/astar313B.trace.xz: No such file or directory
*** Reached end of trace for Core: 0 Repeating trace: ./tracefiles/astar313B.trace.xz
xz: ./tracefiles/astar313B.trace.xz: No such file or directory
*** Reached end of trace for Core: 0 Repeating trace: ./tracefiles/astar313B.trace.xz
xz: ./tracefiles/astar313B.trace.xz: No such file or directory
*** Reached end of trace for Core: 0 Repeating trace: ./tracefiles/astar313B.trace.xz
xz: ./tracefiles/astar313B.trace.xz: No such file or directory
*** Reached end of trace for Core: 0 Repeating trace: ./tracefiles/astar313B.trace.xz
xz: ./tracefiles/astar313B.trace.xz: No such file or directory
*** Reached end of trace for Core: 0 Repeating trace: ./tracefiles/astar313B.trace.xz
xz: ./tracefiles/astar313B.trace.xz: No such file or directory
*** Reached end of trace for Core: 0 Repeating trace: ./tracefiles/astar313B.trace.xz
xz: ./tracefiles/astar313B.trace.xz: No such file or directory
*** Reached end of trace for Core: 0 Repeating trace: ./tracefiles/astar313B.trace.xz
xz: ./tracefiles/astar313B.trace.xz: No such file or directory
*** Reached end of trace for Core: 0 Repeating trace: ./tracefiles/astar313B.trace.xz
xz: ./tracefiles/astar313B.trace.xz: No such file or directory
*** Reached end of trace for Core: 0 Repeating trace: ./tracefiles/astar313B.trace.xz
xz: ./tracefiles/astar313B.trace.xz: No such file or directory
*** Reached end of trace for Core: 0 Repeating trace: ./tracefiles/astar313B.trace.xz
xz: ./tracefiles/astar313B.trace.xz: No such file or directory
*** Reached end of trace for Core: 0 Repeating trace: ./tracefiles/astar313B.trace.xz
xz: ./tracefiles/astar313B.trace.xz: No such file or directory
*** Reached end of trace for Core: 0 Repeating trace: ./tracefiles/astar313B.trace.xz
xz: ./tracefiles/astar313B.trace.xz: No such file or directory
*** Reached end of trace for Core: 0 Repeating trace: ./tracefiles/astar313B.trace.xz
xz: ./tracefiles/astar313B.trace.xz: No such file or directory
*** Reached end of trace for Core: 0 Repeating trace: ./tracefiles/astar313B.trace.xz
xz: ./tracefiles/astar313B.trace.xz: No such file or directory
*** Reached end of trace for Core: 0 Repeating trace: ./tracefiles/astar313B.trace.xz
xz: ./tracefiles/astar313B.trace.xz: No such file or directory
*** Reached end of trace for Core: 0 Repeating trace: ./tracefiles/astar313B.trace.xz
xz: ./tracefiles/astar313B.trace.xz: No such file or directory
*** Reached end of trace for Core: 0 Repeating trace: ./tracefiles/astar313B.trace.xz
xz: ./tracefiles/astar313B.trace.xz: No such file or directory
*** Reached end of trace for Core: 0 Repeating trace: ./tracefiles/astar313B.trace.xz
xz: ./tracefiles/astar313B.trace.xz: No such file or directory
*** Reached end of trace for Core: 0 Repeating trace: ./tracefiles/astar313B.trace.xz
xz: ./tracefiles/astar313B.trace.xz: No such file or directory
*** Reached end of trace for Core: 0 Repeating trace: ./tracefiles/astar313B.trace.xz
xz: ./tracefiles/astar313B.trace.xz: No such file or directory
*** Reached end of trace for Core: 0 Repeating trace: ./tracefiles/astar313B.trace.xz
xz: ./tracefiles/astar313B.trace.xz: No such file or directory
*** Reached end of trace for Core: 0 Repeating trace: ./tracefiles/astar313B.trace.xz
xz: ./tracefiles/astar313B.trace.xz: No such file or directory
*** Reached end of trace for Core: 0 Repeating trace: ./tracefiles/astar313B.trace.xz
xz: ./tracefiles/astar313B.trace.xz: No such file or directory
*** Reached end of trace for Core: 0 Repeating trace: ./tracefiles/astar313B.trace.xz
xz: ./tracefiles/astar313B.trace.xz: No such file or directory
*** Reached end of trace for Core: 0 Repeating trace: ./tracefiles/astar313B.trace.xz
xz: ./tracefiles/astar313B.trace.xz: No such file or directory
*** Reached end of trace for Core: 0 Repeating trace: ./tracefiles/astar313B.trace.xz
xz: ./tracefiles/astar313B.trace.xz: No such file or directory
*** Reached end of trace for Core: 0 Repeating trace: ./tracefiles/astar313B.trace.xz
xz: ./tracefiles/astar313B.trace.xz: No such file or directory
*** Reached end of trace for Core: 0 Repeating trace: ./tracefiles/astar313B.trace.xz
xz: ./tracefiles/astar313B.trace.xz: No such file or directory
*** Reached end of trace for Core: 0 Repeating trace: ./tracefiles/astar313B.trace.xz
xz: ./tracefiles/astar313B.trace.xz: No such file or directory
*** Reached end of trace for Core: 0 Repeating trace: ./tracefiles/astar313B.trace.xz
xz: ./tracefiles/astar313B.trace.xz: No such file or directory
*** Reached end of trace for Core: 0 Repeating trace: ./tracefiles/astar313B.trace.xz
xz: ./tracefiles/astar313B.trace.xz: No such file or directory
*** Reached end of trace for Core: 0 Repeating trace: ./tracefiles/astar313B.trace.xz
xz: ./tracefiles/astar313B.trace.xz: No such file or directory
*** Reached end of trace for Core: 0 Repeating trace: ./tracefiles/astar313B.trace.xz
xz: ./tracefiles/astar313B.trace.xz: No such file or directory
*** Reached end of trace for Core: 0 Repeating trace: ./tracefiles/astar313B.trace.xz
xz: ./tracefiles/astar313B.trace.xz: No such file or directory
*** Reached end of trace for Core: 0 Repeating trace: ./tracefiles/astar313B.trace.xz
xz: ./tracefiles/astar313B.trace.xz: No such file or directory
*** Reached end of trace for Core: 0 Repeating trace: ./tracefiles/astar313B.trace.xz
xz: ./tracefiles/astar313B.trace.xz: No such file or directory
*** Reached end of trace for Core: 0 Repeating trace: ./tracefiles/astar313B.trace.xz
xz: ./tracefiles/astar313B.trace.xz: No such file or directory
*** Reached end of trace for Core: 0 Repeating trace: ./tracefiles/astar313B.trace.xz
xz: ./tracefiles/astar313B.trace.xz: No such file or directory
*** Reached end of trace for Core: 0 Repeating trace: ./tracefiles/astar313B.trace.xz
xz: ./tracefiles/astar313B.trace.xz: No such file or directory
*** Reached end of trace for Core: 0 Repeating trace: ./tracefiles/astar313B.trace.xz
xz: ./tracefiles/astar313B.trace.xz: No such file or directory
*** Reached end of trace for Core: 0 Repeating trace: ./tracefiles/astar313B.trace.xz
xz: ./tracefiles/astar313B.trace.xz: No such file or directory
*** Reached end of trace for Core: 0 Repeating trace: ./tracefiles/astar313B.trace.xz
xz: ./tracefiles/astar313B.trace.xz: No such file or directory
*** Reached end of trace for Core: 0 Repeating trace: ./tracefiles/astar313B.trace.xz
xz: ./tracefiles/astar313B.trace.xz: No such file or directory
*** Reached end of trace for Core: 0 Repeating trace: ./tracefiles/astar313B.trace.xz
xz: ./tracefiles/astar313B.trace.xz: No such file or directory
*** Reached end of trace for Core: 0 Repeating trace: ./tracefiles/astar313B.trace.xz
xz: ./tracefiles/astar313B.trace.xz: No such file or directory
*** Reached end of trace for Core: 0 Repeating trace: ./tracefiles/astar313B.trace.xz
xz: ./tracefiles/astar313B.trace.xz: No such file or directory
*** Reached end of trace for Core: 0 Repeating trace: ./tracefiles/astar313B.trace.xz
xz: ./tracefiles/astar313B.trace.xz: No such file or directory
*** Reached end of trace for Core: 0 Repeating trace: ./tracefiles/astar313B.trace.xz
xz: ./tracefiles/astar313B.trace.xz: No such file or directory
*** Reached end of trace for Core: 0 Repeating trace: ./tracefiles/astar313B.trace.xz
xz: ./tracefiles/astar313B.trace.xz: No such file or directory
*** Reached end of trace for Core: 0 Repeating trace: ./tracefiles/astar313B.trace.xz
xz: ./tracefiles/astar313B.trace.xz: No such file or directory
*** Reached end of trace for Core: 0 Repeating trace: ./tracefiles/astar313B.trace.xz
xz: ./tracefiles/astar313B.trace.xz: No such file or directory
*** Reached end of trace for Core: 0 Repeating trace: ./tracefiles/astar313B.trace.xz
xz: ./tracefiles/astar313B.trace.xz: No such file or directory
*** Reached end of trace for Core: 0 Repeating trace: ./tracefiles/astar313B.trace.xz
xz: ./tracefiles/astar313B.trace.xz: No such file or directory
*** Reached end of trace for Core: 0 Repeating trace: ./tracefiles/astar313B.trace.xz
xz: ./tracefiles/astar313B.trace.xz: No such file or directory
*** Reached end of trace for Core: 0 Repeating trace: ./tracefiles/astar313B.trace.xz
xz: ./tracefiles/astar313B.trace.xz: No such file or directory
*** Reached end of trace for Core: 0 Repeating trace: ./tracefiles/astar313B.trace.xz
xz: ./tracefiles/astar313B.trace.xz: No such file or directory
*** Reached end of trace for Core: 0 Repeating trace: ./tracefiles/astar313B.trace.xz
xz: ./tracefiles/astar313B.trace.xz: No such file or directory
*** Reached end of trace for Core: 0 Repeating trace: ./tracefiles/astar313B.trace.xz
xz: ./tracefiles/astar313B.trace.xz: No such file or directory
*** Reached end of trace for Core: 0 Repeating trace: ./tracefiles/astar313B.trace.xz
xz: ./tracefiles/astar313B.trace.xz: No such file or directory
*** Reached end of trace for Core: 0 Repeating trace: ./tracefiles/astar313B.trace.xz
xz: ./tracefiles/astar313B.trace.xz: No such file or directory
*** Reached end of trace for Core: 0 Repeating trace: ./tracefiles/astar313B.trace.xz
xz: ./tracefiles/astar313B.trace.xz: No such file or directory
*** Reached end of trace for Core: 0 Repeating trace: ./tracefiles/astar313B.trace.xz
xz: ./tracefiles/astar313B.trace.xz: No such file or directory
*** Reached end of trace for Core: 0 Repeating trace: ./tracefiles/astar313B.trace.xz
xz: ./tracefiles/astar313B.trace.xz: No such file or directory
*** Reached end of trace for Core: 0 Repeating trace: ./tracefiles/astar313B.trace.xz
xz: ./tracefiles/astar313B.trace.xz: No such file or directory
*** Reached end of trace for Core: 0 Repeating trace: ./tracefiles/astar313B.trace.xz
xz: ./tracefiles/astar313B.trace.xz: No such file or directory
*** Reached end of trace for Core: 0 Repeating trace: ./tracefiles/astar313B.trace.xz
xz: ./tracefiles/astar313B.trace.xz: No such file or directory
*** Reached end of trace for Core: 0 Repeating trace: ./tracefiles/astar313B.trace.xz
xz: ./tracefiles/astar313B.trace.xz: No such file or directory
*** Reached end of trace for Core: 0 Repeating trace: ./tracefiles/astar313B.trace.xz
xz: ./tracefiles/astar313B.trace.xz: No such file or directory
*** Reached end of trace for Core: 0 Repeating trace: ./tracefiles/astar313B.trace.xz
xz: ./tracefiles/astar313B.trace.xz: No such file or directory
*** Reached end of trace for Core: 0 Repeating trace: ./tracefiles/astar313B.trace.xz
xz: ./tracefiles/astar313B.trace.xz: No such file or directory
*** Reached end of trace for Core: 0 Repeating trace: ./tracefiles/astar313B.trace.xz
xz: ./tracefiles/astar313B.trace.xz: No such file or directory
*** Reached end of trace for Core: 0 Repeating trace: ./tracefiles/astar313B.trace.xz
xz: ./tracefiles/astar313B.trace.xz: No such file or directory
*** Reached end of trace for Core: 0 Repeating trace: ./tracefiles/astar313B.trace.xz
xz: ./tracefiles/astar313B.trace.xz: No such file or directory
*** Reached end of trace for Core: 0 Repeating trace: ./tracefiles/astar313B.trace.xz
xz: ./tracefiles/astar313B.trace.xz: No such file or directory
*** Reached end of trace for Core: 0 Repeating trace: ./tracefiles/astar313B.trace.xz
xz: ./tracefiles/astar313B.trace.xz: No such file or directory
*** Reached end of trace for Core: 0 Repeating trace: ./tracefiles/astar313B.trace.xz
xz: ./tracefiles/astar313B.trace.xz: No such file or directory
*** Reached end of trace for Core: 0 Repeating trace: ./tracefiles/astar313B.trace.xz
xz: ./tracefiles/astar313B.trace.xz: No such file or directory
*** Reached end of trace for Core: 0 Repeating trace: ./tracefiles/astar313B.trace.xz
xz: ./tracefiles/astar313B.trace.xz: No such file or directory
*** Reached end of trace for Core: 0 Repeating trace: ./tracefiles/astar313B.trace.xz
xz: ./tracefiles/astar313B.trace.xz: No such file or directory
*** Reached end of trace for Core: 0 Repeating trace: ./tracefiles/astar313B.trace.xz
xz: ./tracefiles/astar313B.trace.xz: No such file or directory
*** Reached end of trace for Core: 0 Repeating trace: ./tracefiles/astar313B.trace.xz
xz: ./tracefiles/astar313B.trace.xz: No such file or directory
*** Reached end of trace for Core: 0 Repeating trace: ./tracefiles/astar313B.trace.xz
xz: ./tracefiles/astar313B.trace.xz: No such file or directory
*** Reached end of trace for Core: 0 Repeating trace: ./tracefiles/astar313B.trace.xz
xz: ./tracefiles/astar313B.trace.xz: No such file or directory
*** Reached end of trace for Core: 0 Repeating trace: ./tracefiles/astar313B.trace.xz
xz: ./tracefiles/astar313B.trace.xz: No such file or directory
*** Reached end of trace for Core: 0 Repeating trace: ./tracefiles/astar313B.trace.xz
xz: ./tracefiles/astar313B.trace.xz: No such file or directory
*** Reached end of trace for Core: 0 Repeating trace: ./tracefiles/astar313B.trace.xz
xz: ./tracefiles/astar313B.trace.xz: No such file or directory
*** Reached end of trace for Core: 0 Repeating trace: ./tracefiles/astar313B.trace.xz
xz: ./tracefiles/astar313B.trace.xz: No such file or directory
*** Reached end of trace for Core: 0 Repeating trace: ./tracefiles/astar313B.trace.xz
xz: ./tracefiles/astar313B.trace.xz: No such file or directory
*** Reached end of trace for Core: 0 Repeating trace: ./tracefiles/astar313B.trace.xz
xz: ./tracefiles/astar313B.trace.xz: No such file or directory
*** Reached end of trace for Core: 0 Repeating trace: ./tracefiles/astar313B.trace.xz
xz: ./tracefiles/astar313B.trace.xz: No such file or directory
*** Reached end of trace for Core: 0 Repeating trace: ./tracefiles/astar313B.trace.xz
xz: ./tracefiles/astar313B.trace.xz: No such file or directory
*** Reached end of trace for Core: 0 Repeating trace: ./tracefiles/astar313B.trace.xz
xz: ./tracefiles/astar313B.trace.xz: No such file or directory
*** Reached end of trace for Core: 0 Repeating trace: ./tracefiles/astar313B.trace.xz
xz: ./tracefiles/astar313B.trace.xz: No such file or directory
*** Reached end of trace for Core: 0 Repeating trace: ./tracefiles/astar313B.trace.xz
xz: ./tracefiles/astar313B.trace.xz: No such file or directory
*** Reached end of trace for Core: 0 Repeating trace: ./tracefiles/astar313B.trace.xz
xz: ./tracefiles/astar313B.trace.xz: No such file or directory
*** Reached end of trace for Core: 0 Repeating trace: ./tracefiles/astar313B.trace.xz
xz: ./tracefiles/astar313B.trace.xz: No such file or directory
*** Reached end of trace for Core: 0 Repeating trace: ./tracefiles/astar313B.trace.xz
xz: ./tracefiles/astar313B.trace.xz: No such file or directory
*** Reached end of trace for Core: 0 Repeating trace: ./tracefiles/astar313B.trace.xz
xz: ./tracefiles/astar313B.trace.xz: No such file or directory
*** Reached end of trace for Core: 0 Repeating trace: ./tracefiles/astar313B.trace.xz
xz: ./tracefiles/astar313B.trace.xz: No such file or directory
*** Reached end of trace for Core: 0 Repeating trace: ./tracefiles/astar313B.trace.xz
xz: ./tracefiles/astar313B.trace.xz: No such file or directory
*** Reached end of trace for Core: 0 Repeating trace: ./tracefiles/astar313B.trace.xz
xz: ./tracefiles/astar313B.trace.xz: No such file or directory
*** Reached end of trace for Core: 0 Repeating trace: ./tracefiles/astar313B.trace.xz
xz: ./tracefiles/astar313B.trace.xz: No such file or directory
*** Reached end of trace for Core: 0 Repeating trace: ./tracefiles/astar313B.trace.xz
xz: ./tracefiles/astar313B.trace.xz: No such file or directory
*** Reached end of trace for Core: 0 Repeating trace: ./tracefiles/astar313B.trace.xz
xz: ./tracefiles/astar313B.trace.xz: No such file or directory
*** Reached end of trace for Core: 0 Repeating trace: ./tracefiles/astar313B.trace.xz
xz: ./tracefiles/astar313B.trace.xz: No such file or directory
*** Reached end of trace for Core: 0 Repeating trace: ./tracefiles/astar313B.trace.xz
xz: ./tracefiles/astar313B.trace.xz: No such file or directory
*** Reached end of trace for Core: 0 Repeating trace: ./tracefiles/astar313B.trace.xz
xz: ./tracefiles/astar313B.trace.xz: No such file or directory
*** Reached end of trace for Core: 0 Repeating trace: ./tracefiles/astar313B.trace.xz
xz: ./tracefiles/astar313B.trace.xz: No such file or directory
*** Reached end of trace for Core: 0 Repeating trace: ./tracefiles/astar313B.trace.xz
xz: ./tracefiles/astar313B.trace.xz: No such file or directory
*** Reached end of trace for Core: 0 Repeating trace: ./tracefiles/astar313B.trace.xz
xz: ./tracefiles/astar313B.trace.xz: No such file or directory
*** Reached end of trace for Core: 0 Repeating trace: ./tracefiles/astar313B.trace.xz
xz: ./tracefiles/astar313B.trace.xz: No such file or directory
*** Reached end of trace for Core: 0 Repeating trace: ./tracefiles/astar313B.trace.xz
xz: ./tracefiles/astar313B.trace.xz: No such file or directory
*** Reached end of trace for Core: 0 Repeating trace: ./tracefiles/astar313B.trace.xz
xz: ./tracefiles/astar313B.trace.xz: No such file or directory
*** Reached end of trace for Core: 0 Repeating trace: ./tracefiles/astar313B.trace.xz
xz: ./tracefiles/astar313B.trace.xz: No such file or directory
*** Reached end of trace for Core: 0 Repeating trace: ./tracefiles/astar313B.trace.xz
xz: ./tracefiles/astar313B.trace.xz: No such file or directory
*** Reached end of trace for Core: 0 Repeating trace: ./tracefiles/astar313B.trace.xz
xz: ./tracefiles/astar313B.trace.xz: No such file or directory
*** Reached end of trace for Core: 0 Repeating trace: ./tracefiles/astar313B.trace.xz
xz: ./tracefiles/astar313B.trace.xz: No such file or directory
*** Reached end of trace for Core: 0 Repeating trace: ./tracefiles/astar313B.trace.xz
xz: ./tracefiles/astar313B.trace.xz: No such file or directory
*** Reached end of trace for Core: 0 Repeating trace: ./tracefiles/astar313B.trace.xz
xz: ./tracefiles/astar313B.trace.xz: No such file or directory
*** Reached end of trace for Core: 0 Repeating trace: ./tracefiles/astar313B.trace.xz
xz: ./tracefiles/astar313B.trace.xz: No such file or directory
*** Reached end of trace for Core: 0 Repeating trace: ./tracefiles/astar313B.trace.xz
xz: ./tracefiles/astar313B.trace.xz: No such file or directory
*** Reached end of trace for Core: 0 Repeating trace: ./tracefiles/astar313B.trace.xz
xz: ./tracefiles/astar313B.trace.xz: No such file or directory
*** Reached end of trace for Core: 0 Repeating trace: ./tracefiles/astar313B.trace.xz
xz: ./tracefiles/astar313B.trace.xz: No such file or directory
*** Reached end of trace for Core: 0 Repeating trace: ./tracefiles/astar313B.trace.xz
xz: ./tracefiles/astar313B.trace.xz: No such file or directory
*** Reached end of trace for Core: 0 Repeating trace: ./tracefiles/astar313B.trace.xz
xz: ./tracefiles/astar313B.trace.xz: No such file or directory
*** Reached end of trace for Core: 0 Repeating trace: ./tracefiles/astar313B.trace.xz
xz: ./tracefiles/astar313B.trace.xz: No such file or directory
*** Reached end of trace for Core: 0 Repeating trace: ./tracefiles/astar313B.trace.xz
xz: ./tracefiles/astar313B.trace.xz: No such file or directory
*** Reached end of trace for Core: 0 Repeating trace: ./tracefiles/astar313B.trace.xz
xz: ./tracefiles/astar313B.trace.xz: No such file or directory
*** Reached end of trace for Core: 0 Repeating trace: ./tracefiles/astar313B.trace.xz
xz: ./tracefiles/astar313B.trace.xz: No such file or directory
*** Reached end of trace for Core: 0 Repeating trace: ./tracefiles/astar313B.trace.xz
xz: ./tracefiles/astar313B.trace.xz: No such file or directory
*** Reached end of trace for Core: 0 Repeating trace: ./tracefiles/astar313B.trace.xz
xz: ./tracefiles/astar313B.trace.xz: No such file or directory
*** Reached end of trace for Core: 0 Repeating trace: ./tracefiles/astar313B.trace.xz
xz: ./tracefiles/astar313B.trace.xz: No such file or directory
*** Reached end of trace for Core: 0 Repeating trace: ./tracefiles/astar313B.trace.xz
xz: ./tracefiles/astar313B.trace.xz: No such file or directory
*** Reached end of trace for Core: 0 Repeating trace: ./tracefiles/astar313B.trace.xz
xz: ./tracefiles/astar313B.trace.xz: No such file or directory
*** Reached end of trace for Core: 0 Repeating trace: ./tracefiles/astar313B.trace.xz
xz: ./tracefiles/astar313B.trace.xz: No such file or directory
*** Reached end of trace for Core: 0 Repeating trace: ./tracefiles/astar313B.trace.xz
xz: ./tracefiles/astar313B.trace.xz: No such file or directory
*** Reached end of trace for Core: 0 Repeating trace: ./tracefiles/astar313B.trace.xz
xz: ./tracefiles/astar313B.trace.xz: No such file or directory
*** Reached end of trace for Core: 0 Repeating trace: ./tracefiles/astar313B.trace.xz
xz: ./tracefiles/astar313B.trace.xz: No such file or directory
*** Reached end of trace for Core: 0 Repeating trace: ./tracefiles/astar313B.trace.xz
xz: ./tracefiles/astar313B.trace.xz: No such file or directory
*** Reached end of trace for Core: 0 Repeating trace: ./tracefiles/astar313B.trace.xz
xz: ./tracefiles/astar313B.trace.xz: No such file or directory
*** Reached end of trace for Core: 0 Repeating trace: ./tracefiles/astar313B.trace.xz
xz: ./tracefiles/astar313B.trace.xz: No such file or directory
*** Reached end of trace for Core: 0 Repeating trace: ./tracefiles/astar313B.trace.xz
xz: ./tracefiles/astar313B.trace.xz: No such file or directory
*** Reached end of trace for Core: 0 Repeating trace: ./tracefiles/astar313B.trace.xz
xz: ./tracefiles/astar313B.trace.xz: No such file or directory
*** Reached end of trace for Core: 0 Repeating trace: ./tracefiles/astar313B.trace.xz
xz: ./tracefiles/astar313B.trace.xz: No such file or directory
*** Reached end of trace for Core: 0 Repeating trace: ./tracefiles/astar313B.trace.xz
xz: ./tracefiles/astar313B.trace.xz: No such file or directory
*** Reached end of trace for Core: 0 Repeating trace: ./tracefiles/astar313B.trace.xz
xz: ./tracefiles/astar313B.trace.xz: No such file or directory
*** Reached end of trace for Core: 0 Repeating trace: ./tracefiles/astar313B.trace.xz
xz: ./tracefiles/astar313B.trace.xz: No such file or directory
*** Reached end of trace for Core: 0 Repeating trace: ./tracefiles/astar313B.trace.xz
xz: ./tracefiles/astar313B.trace.xz: No such file or directory
*** Reached end of trace for Core: 0 Repeating trace: ./tracefiles/astar313B.trace.xz
xz: ./tracefiles/astar313B.trace.xz: No such file or directory
*** Reached end of trace for Core: 0 Repeating trace: ./tracefiles/astar313B.trace.xz
xz: ./tracefiles/astar313B.trace.xz: No such file or directory
*** Reached end of trace for Core: 0 Repeating trace: ./tracefiles/astar313B.trace.xz
xz: ./tracefiles/astar313B.trace.xz: No such file or directory
*** Reached end of trace for Core: 0 Repeating trace: ./tracefiles/astar313B.trace.xz
xz: ./tracefiles/astar313B.trace.xz: No such file or directory
*** Reached end of trace for Core: 0 Repeating trace: ./tracefiles/astar313B.trace.xz
xz: ./tracefiles/astar313B.trace.xz: No such file or directory
*** Reached end of trace for Core: 0 Repeating trace: ./tracefiles/astar313B.trace.xz
xz: ./tracefiles/astar313B.trace.xz: No such file or directory
*** Reached end of trace for Core: 0 Repeating trace: ./tracefiles/astar313B.trace.xz
xz: ./tracefiles/astar313B.trace.xz: No such file or directory
*** Reached end of trace for Core: 0 Repeating trace: ./tracefiles/astar313B.trace.xz
xz: ./tracefiles/astar313B.trace.xz: No such file or directory
*** Reached end of trace for Core: 0 Repeating trace: ./tracefiles/astar313B.trace.xz
xz: ./tracefiles/astar313B.trace.xz: No such file or directory
*** Reached end of trace for Core: 0 Repeating trace: ./tracefiles/astar313B.trace.xz
xz: ./tracefiles/astar313B.trace.xz: No such file or directory
*** Reached end of trace for Core: 0 Repeating trace: ./tracefiles/astar313B.trace.xz
xz: ./tracefiles/astar313B.trace.xz: No such file or directory
*** Reached end of trace for Core: 0 Repeating trace: ./tracefiles/astar313B.trace.xz
xz: ./tracefiles/astar313B.trace.xz: No such file or directory
*** Reached end of trace for Core: 0 Repeating trace: ./tracefiles/astar313B.trace.xz
xz: ./tracefiles/astar313B.trace.xz: No such file or directory
*** Reached end of trace for Core: 0 Repeating trace: ./tracefiles/astar313B.trace.xz
xz: ./tracefiles/astar313B.trace.xz: No such file or directory
*** Reached end of trace for Core: 0 Repeating trace: ./tracefiles/astar313B.trace.xz
xz: ./tracefiles/astar313B.trace.xz: No such file or directory
*** Reached end of trace for Core: 0 Repeating trace: ./tracefiles/astar313B.trace.xz
xz: ./tracefiles/astar313B.trace.xz: No such file or directory
*** Reached end of trace for Core: 0 Repeating trace: ./tracefiles/astar313B.trace.xz
xz: ./tracefiles/astar313B.trace.xz: No such file or directory
*** Reached end of trace for Core: 0 Repeating trace: ./tracefiles/astar313B.trace.xz
xz: ./tracefiles/astar313B.trace.xz: No such file or directory
*** Reached end of trace for Core: 0 Repeating trace: ./tracefiles/astar313B.trace.xz
xz: ./tracefiles/astar313B.trace.xz: No such file or directory
*** Reached end of trace for Core: 0 Repeating trace: ./tracefiles/astar313B.trace.xz
xz: ./tracefiles/astar313B.trace.xz: No such file or directory
*** Reached end of trace for Core: 0 Repeating trace: ./tracefiles/astar313B.trace.xz
xz: ./tracefiles/astar313B.trace.xz: No such file or directory
*** Reached end of trace for Core: 0 Repeating trace: ./tracefiles/astar313B.trace.xz
xz: ./tracefiles/astar313B.trace.xz: No such file or directory
*** Reached end of trace for Core: 0 Repeating trace: ./tracefiles/astar313B.trace.xz
xz: ./tracefiles/astar313B.trace.xz: No such file or directory
*** Reached end of trace for Core: 0 Repeating trace: ./tracefiles/astar313B.trace.xz
xz: ./tracefiles/astar313B.trace.xz: No such file or directory
*** Reached end of trace for Core: 0 Repeating trace: ./tracefiles/astar313B.trace.xz
xz: ./tracefiles/astar313B.trace.xz: No such file or directory
*** Reached end of trace for Core: 0 Repeating trace: ./tracefiles/astar313B.trace.xz
xz: ./tracefiles/astar313B.trace.xz: No such file or directory
*** Reached end of trace for Core: 0 Repeating trace: ./tracefiles/astar313B.trace.xz
xz: ./tracefiles/astar313B.trace.xz: No such file or directory
*** Reached end of trace for Core: 0 Repeating trace: ./tracefiles/astar313B.trace.xz
xz: ./tracefiles/astar313B.trace.xz: No such file or directory
*** Reached end of trace for Core: 0 Repeating trace: ./tracefiles/astar313B.trace.xz
xz: ./tracefiles/astar313B.trace.xz: No such file or directory
*** Reached end of trace for Core: 0 Repeating trace: ./tracefiles/astar313B.trace.xz
xz: ./tracefiles/astar313B.trace.xz: No such file or directory
*** Reached end of trace for Core: 0 Repeating trace: ./tracefiles/astar313B.trace.xz
xz: ./tracefiles/astar313B.trace.xz: No such file or directory
*** Reached end of trace for Core: 0 Repeating trace: ./tracefiles/astar313B.trace.xz
xz: ./tracefiles/astar313B.trace.xz: No such file or directory
*** Reached end of trace for Core: 0 Repeating trace: ./tracefiles/astar313B.trace.xz
xz: ./tracefiles/astar313B.trace.xz: No such file or directory
*** Reached end of trace for Core: 0 Repeating trace: ./tracefiles/astar313B.trace.xz
xz: ./tracefiles/astar313B.trace.xz: No such file or directory
*** Reached end of trace for Core: 0 Repeating trace: ./tracefiles/astar313B.trace.xz
xz: ./tracefiles/astar313B.trace.xz: No such file or directory
*** Reached end of trace for Core: 0 Repeating trace: ./tracefiles/astar313B.trace.xz
xz: ./tracefiles/astar313B.trace.xz: No such file or directory
*** Reached end of trace for Core: 0 Repeating trace: ./tracefiles/astar313B.trace.xz
xz: ./tracefiles/astar313B.trace.xz: No such file or directory
*** Reached end of trace for Core: 0 Repeating trace: ./tracefiles/astar313B.trace.xz
xz: ./tracefiles/astar313B.trace.xz: No such file or directory
*** Reached end of trace for Core: 0 Repeating trace: ./tracefiles/astar313B.trace.xz
xz: ./tracefiles/astar313B.trace.xz: No such file or directory
*** Reached end of trace for Core: 0 Repeating trace: ./tracefiles/astar313B.trace.xz
xz: ./tracefiles/astar313B.trace.xz: No such file or directory
*** Reached end of trace for Core: 0 Repeating trace: ./tracefiles/astar313B.trace.xz
xz: ./tracefiles/astar313B.trace.xz: No such file or directory
*** Reached end of trace for Core: 0 Repeating trace: ./tracefiles/astar313B.trace.xz
xz: ./tracefiles/astar313B.trace.xz: No such file or directory
*** Reached end of trace for Core: 0 Repeating trace: ./tracefiles/astar313B.trace.xz
xz: ./tracefiles/astar313B.trace.xz: No such file or directory
*** Reached end of trace for Core: 0 Repeating trace: ./tracefiles/astar313B.trace.xz
xz: ./tracefiles/astar313B.trace.xz: No such file or directory
*** Reached end of trace for Core: 0 Repeating trace: ./tracefiles/astar313B.trace.xz
xz: ./tracefiles/astar313B.trace.xz: No such file or directory
*** Reached end of trace for Core: 0 Repeating trace: ./tracefiles/astar313B.trace.xz
xz: ./tracefiles/astar313B.trace.xz: No such file or directory
*** Reached end of trace for Core: 0 Repeating trace: ./tracefiles/astar313B.trace.xz
xz: ./tracefiles/astar313B.trace.xz: No such file or directory
*** Reached end of trace for Core: 0 Repeating trace: ./tracefiles/astar313B.trace.xz
xz: ./tracefiles/astar313B.trace.xz: No such file or directory
*** Reached end of trace for Core: 0 Repeating trace: ./tracefiles/astar313B.trace.xz
xz: ./tracefiles/astar313B.trace.xz: No such file or directory
*** Reached end of trace for Core: 0 Repeating trace: ./tracefiles/astar313B.trace.xz
xz: ./tracefiles/astar313B.trace.xz: No such file or directory
*** Reached end of trace for Core: 0 Repeating trace: ./tracefiles/astar313B.trace.xz
xz: ./tracefiles/astar313B.trace.xz: No such file or directory
*** Reached end of trace for Core: 0 Repeating trace: ./tracefiles/astar313B.trace.xz
xz: ./tracefiles/astar313B.trace.xz: No such file or directory
*** Reached end of trace for Core: 0 Repeating trace: ./tracefiles/astar313B.trace.xz
xz: ./tracefiles/astar313B.trace.xz: No such file or directory
*** Reached end of trace for Core: 0 Repeating trace: ./tracefiles/astar313B.trace.xz
xz: ./tracefiles/astar313B.trace.xz: No such file or directory
*** Reached end of trace for Core: 0 Repeating trace: ./tracefiles/astar313B.trace.xz
xz: ./tracefiles/astar313B.trace.xz: No such file or directory
*** Reached end of trace for Core: 0 Repeating trace: ./tracefiles/astar313B.trace.xz
xz: ./tracefiles/astar313B.trace.xz: No such file or directory
*** Reached end of trace for Core: 0 Repeating trace: ./tracefiles/astar313B.trace.xz
xz: ./tracefiles/astar313B.trace.xz: No such file or directory
*** Reached end of trace for Core: 0 Repeating trace: ./tracefiles/astar313B.trace.xz
xz: ./tracefiles/astar313B.trace.xz: No such file or directory
*** Reached end of trace for Core: 0 Repeating trace: ./tracefiles/astar313B.trace.xz
xz: ./tracefiles/astar313B.trace.xz: No such file or directory
*** Reached end of trace for Core: 0 Repeating trace: ./tracefiles/astar313B.trace.xz
xz: ./tracefiles/astar313B.trace.xz: No such file or directory
*** Reached end of trace for Core: 0 Repeating trace: ./tracefiles/astar313B.trace.xz
xz: ./tracefiles/astar313B.trace.xz: No such file or directory
*** Reached end of trace for Core: 0 Repeating trace: ./tracefiles/astar313B.trace.xz
xz: ./tracefiles/astar313B.trace.xz: No such file or directory
*** Reached end of trace for Core: 0 Repeating trace: ./tracefiles/astar313B.trace.xz
xz: ./tracefiles/astar313B.trace.xz: No such file or directory
*** Reached end of trace for Core: 0 Repeating trace: ./tracefiles/astar313B.trace.xz
xz: ./tracefiles/astar313B.trace.xz: No such file or directory
*** Reached end of trace for Core: 0 Repeating trace: ./tracefiles/astar313B.trace.xz
xz: ./tracefiles/astar313B.trace.xz: No such file or directory
*** Reached end of trace for Core: 0 Repeating trace: ./tracefiles/astar313B.trace.xz
xz: ./tracefiles/astar313B.trace.xz: No such file or directory
*** Reached end of trace for Core: 0 Repeating trace: ./tracefiles/astar313B.trace.xz
xz: ./tracefiles/astar313B.trace.xz: No such file or directory
*** Reached end of trace for Core: 0 Repeating trace: ./tracefiles/astar313B.trace.xz
xz: ./tracefiles/astar313B.trace.xz: No such file or directory
*** Reached end of trace for Core: 0 Repeating trace: ./tracefiles/astar313B.trace.xz
xz: ./tracefiles/astar313B.trace.xz: No such file or directory
*** Reached end of trace for Core: 0 Repeating trace: ./tracefiles/astar313B.trace.xz
xz: ./tracefiles/astar313B.trace.xz: No such file or directory
*** Reached end of trace for Core: 0 Repeating trace: ./tracefiles/astar313B.trace.xz
xz: ./tracefiles/astar313B.trace.xz: No such file or directory
*** Reached end of trace for Core: 0 Repeating trace: ./tracefiles/astar313B.trace.xz
xz: ./tracefiles/astar313B.trace.xz: No such file or directory
*** Reached end of trace for Core: 0 Repeating trace: ./tracefiles/astar313B.trace.xz
xz: ./tracefiles/astar313B.trace.xz: No such file or directory
*** Reached end of trace for Core: 0 Repeating trace: ./tracefiles/astar313B.trace.xz
xz: ./tracefiles/astar313B.trace.xz: No such file or directory
*** Reached end of trace for Core: 0 Repeating trace: ./tracefiles/astar313B.trace.xz
xz: ./tracefiles/astar313B.trace.xz: No such file or directory
*** Reached end of trace for Core: 0 Repeating trace: ./tracefiles/astar313B.trace.xz
xz: ./tracefiles/astar313B.trace.xz: No such file or directory
*** Reached end of trace for Core: 0 Repeating trace: ./tracefiles/astar313B.trace.xz
xz: ./tracefiles/astar313B.trace.xz: No such file or directory
*** Reached end of trace for Core: 0 Repeating trace: ./tracefiles/astar313B.trace.xz
xz: ./tracefiles/astar313B.trace.xz: No such file or directory
*** Reached end of trace for Core: 0 Repeating trace: ./tracefiles/astar313B.trace.xz
xz: ./tracefiles/astar313B.trace.xz: No such file or directory
*** Reached end of trace for Core: 0 Repeating trace: ./tracefiles/astar313B.trace.xz
xz: ./tracefiles/astar313B.trace.xz: No such file or directory
*** Reached end of trace for Core: 0 Repeating trace: ./tracefiles/astar313B.trace.xz
xz: ./tracefiles/astar313B.trace.xz: No such file or directory
*** Reached end of trace for Core: 0 Repeating trace: ./tracefiles/astar313B.trace.xz
xz: ./tracefiles/astar313B.trace.xz: No such file or directory
*** Reached end of trace for Core: 0 Repeating trace: ./tracefiles/astar313B.trace.xz
xz: ./tracefiles/astar313B.trace.xz: No such file or directory
*** Reached end of trace for Core: 0 Repeating trace: ./tracefiles/astar313B.trace.xz
xz: ./tracefiles/astar313B.trace.xz: No such file or directory
*** Reached end of trace for Core: 0 Repeating trace: ./tracefiles/astar313B.trace.xz
xz: ./tracefiles/astar313B.trace.xz: No such file or directory
*** Reached end of trace for Core: 0 Repeating trace: ./tracefiles/astar313B.trace.xz
xz: ./tracefiles/astar313B.trace.xz: No such file or directory
*** Reached end of trace for Core: 0 Repeating trace: ./tracefiles/astar313B.trace.xz
xz: ./tracefiles/astar313B.trace.xz: No such file or directory
*** Reached end of trace for Core: 0 Repeating trace: ./tracefiles/astar313B.trace.xz
xz: ./tracefiles/astar313B.trace.xz: No such file or directory
*** Reached end of trace for Core: 0 Repeating trace: ./tracefiles/astar313B.trace.xz
xz: ./tracefiles/astar313B.trace.xz: No such file or directory
*** Reached end of trace for Core: 0 Repeating trace: ./tracefiles/astar313B.trace.xz
xz: ./tracefiles/astar313B.trace.xz: No such file or directory
*** Reached end of trace for Core: 0 Repeating trace: ./tracefiles/astar313B.trace.xz
xz: ./tracefiles/astar313B.trace.xz: No such file or directory
*** Reached end of trace for Core: 0 Repeating trace: ./tracefiles/astar313B.trace.xz
xz: ./tracefiles/astar313B.trace.xz: No such file or directory
*** Reached end of trace for Core: 0 Repeating trace: ./tracefiles/astar313B.trace.xz
xz: ./tracefiles/astar313B.trace.xz: No such file or directory
*** Reached end of trace for Core: 0 Repeating trace: ./tracefiles/astar313B.trace.xz
xz: ./tracefiles/astar313B.trace.xz: No such file or directory
*** Reached end of trace for Core: 0 Repeating trace: ./tracefiles/astar313B.trace.xz
xz: ./tracefiles/astar313B.trace.xz: No such file or directory
*** Reached end of trace for Core: 0 Repeating trace: ./tracefiles/astar313B.trace.xz
xz: ./tracefiles/astar313B.trace.xz: No such file or directory
*** Reached end of trace for Core: 0 Repeating trace: ./tracefiles/astar313B.trace.xz
xz: ./tracefiles/astar313B.trace.xz: No such file or directory
*** Reached end of trace for Core: 0 Repeating trace: ./tracefiles/astar313B.trace.xz
xz: ./tracefiles/astar313B.trace.xz: No such file or directory
*** Reached end of trace for Core: 0 Repeating trace: ./tracefiles/astar313B.trace.xz
xz: ./tracefiles/astar313B.trace.xz: No such file or directory
*** Reached end of trace for Core: 0 Repeating trace: ./tracefiles/astar313B.trace.xz
xz: ./tracefiles/astar313B.trace.xz: No such file or directory
*** Reached end of trace for Core: 0 Repeating trace: ./tracefiles/astar313B.trace.xz
xz: ./tracefiles/astar313B.trace.xz: No such file or directory
*** Reached end of trace for Core: 0 Repeating trace: ./tracefiles/astar313B.trace.xz
xz: ./tracefiles/astar313B.trace.xz: No such file or directory
*** Reached end of trace for Core: 0 Repeating trace: ./tracefiles/astar313B.trace.xz
xz: ./tracefiles/astar313B.trace.xz: No such file or directory
*** Reached end of trace for Core: 0 Repeating trace: ./tracefiles/astar313B.trace.xz
xz: ./tracefiles/astar313B.trace.xz: No such file or directory
*** Reached end of trace for Core: 0 Repeating trace: ./tracefiles/astar313B.trace.xz
xz: ./tracefiles/astar313B.trace.xz: No such file or directory
*** Reached end of trace for Core: 0 Repeating trace: ./tracefiles/astar313B.trace.xz
xz: ./tracefiles/astar313B.trace.xz: No such file or directory
*** Reached end of trace for Core: 0 Repeating trace: ./tracefiles/astar313B.trace.xz
xz: ./tracefiles/astar313B.trace.xz: No such file or directory
*** Reached end of trace for Core: 0 Repeating trace: ./tracefiles/astar313B.trace.xz
xz: ./tracefiles/astar313B.trace.xz: No such file or directory
*** Reached end of trace for Core: 0 Repeating trace: ./tracefiles/astar313B.trace.xz
xz: ./tracefiles/astar313B.trace.xz: No such file or directory
*** Reached end of trace for Core: 0 Repeating trace: ./tracefiles/astar313B.trace.xz
xz: ./tracefiles/astar313B.trace.xz: No such file or directory
*** Reached end of trace for Core: 0 Repeating trace: ./tracefiles/astar313B.trace.xz
xz: ./tracefiles/astar313B.trace.xz: No such file or directory
*** Reached end of trace for Core: 0 Repeating trace: ./tracefiles/astar313B.trace.xz
xz: ./tracefiles/astar313B.trace.xz: No such file or directory
*** Reached end of trace for Core: 0 Repeating trace: ./tracefiles/astar313B.trace.xz
xz: ./tracefiles/astar313B.trace.xz: No such file or directory
*** Reached end of trace for Core: 0 Repeating trace: ./tracefiles/astar313B.trace.xz
xz: ./tracefiles/astar313B.trace.xz: No such file or directory
*** Reached end of trace for Core: 0 Repeating trace: ./tracefiles/astar313B.trace.xz
xz: ./tracefiles/astar313B.trace.xz: No such file or directory
*** Reached end of trace for Core: 0 Repeating trace: ./tracefiles/astar313B.trace.xz
xz: ./tracefiles/astar313B.trace.xz: No such file or directory
*** Reached end of trace for Core: 0 Repeating trace: ./tracefiles/astar313B.trace.xz
xz: ./tracefiles/astar313B.trace.xz: No such file or directory
*** Reached end of trace for Core: 0 Repeating trace: ./tracefiles/astar313B.trace.xz
xz: ./tracefiles/astar313B.trace.xz: No such file or directory
*** Reached end of trace for Core: 0 Repeating trace: ./tracefiles/astar313B.trace.xz
xz: ./tracefiles/astar313B.trace.xz: No such file or directory
*** Reached end of trace for Core: 0 Repeating trace: ./tracefiles/astar313B.trace.xz
xz: ./tracefiles/astar313B.trace.xz: No such file or directory
*** Reached end of trace for Core: 0 Repeating trace: ./tracefiles/astar313B.trace.xz
xz: ./tracefiles/astar313B.trace.xz: No such file or directory
*** Reached end of trace for Core: 0 Repeating trace: ./tracefiles/astar313B.trace.xz
xz: ./tracefiles/astar313B.trace.xz: No such file or directory
*** Reached end of trace for Core: 0 Repeating trace: ./tracefiles/astar313B.trace.xz
xz: ./tracefiles/astar313B.trace.xz: No such file or directory
*** Reached end of trace for Core: 0 Repeating trace: ./tracefiles/astar313B.trace.xz
xz: ./tracefiles/astar313B.trace.xz: No such file or directory
*** Reached end of trace for Core: 0 Repeating trace: ./tracefiles/astar313B.trace.xz
xz: ./tracefiles/astar313B.trace.xz: No such file or directory
*** Reached end of trace for Core: 0 Repeating trace: ./tracefiles/astar313B.trace.xz
xz: ./tracefiles/astar313B.trace.xz: No such file or directory
*** Reached end of trace for Core: 0 Repeating trace: ./tracefiles/astar313B.trace.xz
xz: ./tracefiles/astar313B.trace.xz: No such file or directory
*** Reached end of trace for Core: 0 Repeating trace: ./tracefiles/astar313B.trace.xz
xz: ./tracefiles/astar313B.trace.xz: No such file or directory
*** Reached end of trace for Core: 0 Repeating trace: ./tracefiles/astar313B.trace.xz
xz: ./tracefiles/astar313B.trace.xz: No such file or directory
*** Reached end of trace for Core: 0 Repeating trace: ./tracefiles/astar313B.trace.xz
xz: ./tracefiles/astar313B.trace.xz: No such file or directory
*** Reached end of trace for Core: 0 Repeating trace: ./tracefiles/astar313B.trace.xz
xz: ./tracefiles/astar313B.trace.xz: No such file or directory
*** Reached end of trace for Core: 0 Repeating trace: ./tracefiles/astar313B.trace.xz
xz: ./tracefiles/astar313B.trace.xz: No such file or directory
*** Reached end of trace for Core: 0 Repeating trace: ./tracefiles/astar313B.trace.xz
xz: ./tracefiles/astar313B.trace.xz: No such file or directory
*** Reached end of trace for Core: 0 Repeating trace: ./tracefiles/astar313B.trace.xz
xz: ./tracefiles/astar313B.trace.xz: No such file or directory
*** Reached end of trace for Core: 0 Repeating trace: ./tracefiles/astar313B.trace.xz
xz: ./tracefiles/astar313B.trace.xz: No such file or directory
*** Reached end of trace for Core: 0 Repeating trace: ./tracefiles/astar313B.trace.xz
xz: ./tracefiles/astar313B.trace.xz: No such file or directory
*** Reached end of trace for Core: 0 Repeating trace: ./tracefiles/astar313B.trace.xz
xz: ./tracefiles/astar313B.trace.xz: No such file or directory
*** Reached end of trace for Core: 0 Repeating trace: ./tracefiles/astar313B.trace.xz
xz: ./tracefiles/astar313B.trace.xz: No such file or directory
*** Reached end of trace for Core: 0 Repeating trace: ./tracefiles/astar313B.trace.xz
xz: ./tracefiles/astar313B.trace.xz: No such file or directory
*** Reached end of trace for Core: 0 Repeating trace: ./tracefiles/astar313B.trace.xz
xz: ./tracefiles/astar313B.trace.xz: No such file or directory
*** Reached end of trace for Core: 0 Repeating trace: ./tracefiles/astar313B.trace.xz
xz: ./tracefiles/astar313B.trace.xz: No such file or directory
*** Reached end of trace for Core: 0 Repeating trace: ./tracefiles/astar313B.trace.xz
xz: ./tracefiles/astar313B.trace.xz: No such file or directory
*** Reached end of trace for Core: 0 Repeating trace: ./tracefiles/astar313B.trace.xz
xz: ./tracefiles/astar313B.trace.xz: No such file or directory
*** Reached end of trace for Core: 0 Repeating trace: ./tracefiles/astar313B.trace.xz
xz: ./tracefiles/astar313B.trace.xz: No such file or directory
*** Reached end of trace for Core: 0 Repeating trace: ./tracefiles/astar313B.trace.xz
xz: ./tracefiles/astar313B.trace.xz: No such file or directory
*** Reached end of trace for Core: 0 Repeating trace: ./tracefiles/astar313B.trace.xz
xz: ./tracefiles/astar313B.trace.xz: No such file or directory
*** Reached end of trace for Core: 0 Repeating trace: ./tracefiles/astar313B.trace.xz
xz: ./tracefiles/astar313B.trace.xz: No such file or directory
*** Reached end of trace for Core: 0 Repeating trace: ./tracefiles/astar313B.trace.xz
xz: ./tracefiles/astar313B.trace.xz: No such file or directory
*** Reached end of trace for Core: 0 Repeating trace: ./tracefiles/astar313B.trace.xz
xz: ./tracefiles/astar313B.trace.xz: No such file or directory
*** Reached end of trace for Core: 0 Repeating trace: ./tracefiles/astar313B.trace.xz
xz: ./tracefiles/astar313B.trace.xz: No such file or directory
*** Reached end of trace for Core: 0 Repeating trace: ./tracefiles/astar313B.trace.xz
xz: ./tracefiles/astar313B.trace.xz: No such file or directory
*** Reached end of trace for Core: 0 Repeating trace: ./tracefiles/astar313B.trace.xz
xz: ./tracefiles/astar313B.trace.xz: No such file or directory
*** Reached end of trace for Core: 0 Repeating trace: ./tracefiles/astar313B.trace.xz
xz: ./tracefiles/astar313B.trace.xz: No such file or directory
*** Reached end of trace for Core: 0 Repeating trace: ./tracefiles/astar313B.trace.xz
xz: ./tracefiles/astar313B.trace.xz: No such file or directory
*** Reached end of trace for Core: 0 Repeating trace: ./tracefiles/astar313B.trace.xz
xz: ./tracefiles/astar313B.trace.xz: No such file or directory
*** Reached end of trace for Core: 0 Repeating trace: ./tracefiles/astar313B.trace.xz
xz: ./tracefiles/astar313B.trace.xz: No such file or directory
*** Reached end of trace for Core: 0 Repeating trace: ./tracefiles/astar313B.trace.xz
xz: ./tracefiles/astar313B.trace.xz: No such file or directory
*** Reached end of trace for Core: 0 Repeating trace: ./tracefiles/astar313B.trace.xz
xz: ./tracefiles/astar313B.trace.xz: No such file or directory
*** Reached end of trace for Core: 0 Repeating trace: ./tracefiles/astar313B.trace.xz
xz: ./tracefiles/astar313B.trace.xz: No such file or directory
*** Reached end of trace for Core: 0 Repeating trace: ./tracefiles/astar313B.trace.xz
xz: ./tracefiles/astar313B.trace.xz: No such file or directory
*** Reached end of trace for Core: 0 Repeating trace: ./tracefiles/astar313B.trace.xz
xz: ./tracefiles/astar313B.trace.xz: No such file or directory
*** Reached end of trace for Core: 0 Repeating trace: ./tracefiles/astar313B.trace.xz
xz: ./tracefiles/astar313B.trace.xz: No such file or directory
*** Reached end of trace for Core: 0 Repeating trace: ./tracefiles/astar313B.trace.xz
xz: ./tracefiles/astar313B.trace.xz: No such file or directory
*** Reached end of trace for Core: 0 Repeating trace: ./tracefiles/astar313B.trace.xz
xz: ./tracefiles/astar313B.trace.xz: No such file or directory
*** Reached end of trace for Core: 0 Repeating trace: ./tracefiles/astar313B.trace.xz
xz: ./tracefiles/astar313B.trace.xz: No such file or directory
*** Reached end of trace for Core: 0 Repeating trace: ./tracefiles/astar313B.trace.xz
xz: ./tracefiles/astar313B.trace.xz: No such file or directory
*** Reached end of trace for Core: 0 Repeating trace: ./tracefiles/astar313B.trace.xz
xz: ./tracefiles/astar313B.trace.xz: No such file or directory
*** Reached end of trace for Core: 0 Repeating trace: ./tracefiles/astar313B.trace.xz
xz: ./tracefiles/astar313B.trace.xz: No such file or directory
*** Reached end of trace for Core: 0 Repeating trace: ./tracefiles/astar313B.trace.xz
xz: ./tracefiles/astar313B.trace.xz: No such file or directory
*** Reached end of trace for Core: 0 Repeating trace: ./tracefiles/astar313B.trace.xz
xz: ./tracefiles/astar313B.trace.xz: No such file or directory
*** Reached end of trace for Core: 0 Repeating trace: ./tracefiles/astar313B.trace.xz
xz: ./tracefiles/astar313B.trace.xz: No such file or directory
*** Reached end of trace for Core: 0 Repeating trace: ./tracefiles/astar313B.trace.xz
xz: ./tracefiles/astar313B.trace.xz: No such file or directory
*** Reached end of trace for Core: 0 Repeating trace: ./tracefiles/astar313B.trace.xz
xz: ./tracefiles/astar313B.trace.xz: No such file or directory
*** Reached end of trace for Core: 0 Repeating trace: ./tracefiles/astar313B.trace.xz
xz: ./tracefiles/astar313B.trace.xz: No such file or directory
*** Reached end of trace for Core: 0 Repeating trace: ./tracefiles/astar313B.trace.xz
xz: ./tracefiles/astar313B.trace.xz: No such file or directory
*** Reached end of trace for Core: 0 Repeating trace: ./tracefiles/astar313B.trace.xz
xz: ./tracefiles/astar313B.trace.xz: No such file or directory
*** Reached end of trace for Core: 0 Repeating trace: ./tracefiles/astar313B.trace.xz
xz: ./tracefiles/astar313B.trace.xz: No such file or directory
*** Reached end of trace for Core: 0 Repeating trace: ./tracefiles/astar313B.trace.xz
xz: ./tracefiles/astar313B.trace.xz: No such file or directory
*** Reached end of trace for Core: 0 Repeating trace: ./tracefiles/astar313B.trace.xz
xz: ./tracefiles/astar313B.trace.xz: No such file or directory
*** Reached end of trace for Core: 0 Repeating trace: ./tracefiles/astar313B.trace.xz
xz: ./tracefiles/astar313B.trace.xz: No such file or directory
*** Reached end of trace for Core: 0 Repeating trace: ./tracefiles/astar313B.trace.xz
xz: ./tracefiles/astar313B.trace.xz: No such file or directory
*** Reached end of trace for Core: 0 Repeating trace: ./tracefiles/astar313B.trace.xz
xz: ./tracefiles/astar313B.trace.xz: No such file or directory
*** Reached end of trace for Core: 0 Repeating trace: ./tracefiles/astar313B.trace.xz
xz: ./tracefiles/astar313B.trace.xz: No such file or directory
*** Reached end of trace for Core: 0 Repeating trace: ./tracefiles/astar313B.trace.xz
xz: ./tracefiles/astar313B.trace.xz: No such file or directory
*** Reached end of trace for Core: 0 Repeating trace: ./tracefiles/astar313B.trace.xz
xz: ./tracefiles/astar313B.trace.xz: No such file or directory
*** Reached end of trace for Core: 0 Repeating trace: ./tracefiles/astar313B.trace.xz
xz: ./tracefiles/astar313B.trace.xz: No such file or directory
*** Reached end of trace for Core: 0 Repeating trace: ./tracefiles/astar313B.trace.xz
xz: ./tracefiles/astar313B.trace.xz: No such file or directory
*** Reached end of trace for Core: 0 Repeating trace: ./tracefiles/astar313B.trace.xz
xz: ./tracefiles/astar313B.trace.xz: No such file or directory
*** Reached end of trace for Core: 0 Repeating trace: ./tracefiles/astar313B.trace.xz
xz: ./tracefiles/astar313B.trace.xz: No such file or directory
*** Reached end of trace for Core: 0 Repeating trace: ./tracefiles/astar313B.trace.xz
xz: ./tracefiles/astar313B.trace.xz: No such file or directory
*** Reached end of trace for Core: 0 Repeating trace: ./tracefiles/astar313B.trace.xz
xz: ./tracefiles/astar313B.trace.xz: No such file or directory
*** Reached end of trace for Core: 0 Repeating trace: ./tracefiles/astar313B.trace.xz
xz: ./tracefiles/astar313B.trace.xz: No such file or directory
*** Reached end of trace for Core: 0 Repeating trace: ./tracefiles/astar313B.trace.xz
xz: ./tracefiles/astar313B.trace.xz: No such file or directory
*** Reached end of trace for Core: 0 Repeating trace: ./tracefiles/astar313B.trace.xz
xz: ./tracefiles/astar313B.trace.xz: No such file or directory
*** Reached end of trace for Core: 0 Repeating trace: ./tracefiles/astar313B.trace.xz
xz: ./tracefiles/astar313B.trace.xz: No such file or directory
*** Reached end of trace for Core: 0 Repeating trace: ./tracefiles/astar313B.trace.xz
xz: ./tracefiles/astar313B.trace.xz: No such file or directory
*** Reached end of trace for Core: 0 Repeating trace: ./tracefiles/astar313B.trace.xz
xz: ./tracefiles/astar313B.trace.xz: No such file or directory
*** Reached end of trace for Core: 0 Repeating trace: ./tracefiles/astar313B.trace.xz
xz: ./tracefiles/astar313B.trace.xz: No such file or directory
*** Reached end of trace for Core: 0 Repeating trace: ./tracefiles/astar313B.trace.xz
xz: ./tracefiles/astar313B.trace.xz: No such file or directory
*** Reached end of trace for Core: 0 Repeating trace: ./tracefiles/astar313B.trace.xz
xz: ./tracefiles/astar313B.trace.xz: No such file or directory
*** Reached end of trace for Core: 0 Repeating trace: ./tracefiles/astar313B.trace.xz
xz: ./tracefiles/astar313B.trace.xz: No such file or directory
*** Reached end of trace for Core: 0 Repeating trace: ./tracefiles/astar313B.trace.xz
xz: ./tracefiles/astar313B.trace.xz: No such file or directory
*** Reached end of trace for Core: 0 Repeating trace: ./tracefiles/astar313B.trace.xz
xz: ./tracefiles/astar313B.trace.xz: No such file or directory
*** Reached end of trace for Core: 0 Repeating trace: ./tracefiles/astar313B.trace.xz
xz: ./tracefiles/astar313B.trace.xz: No such file or directory
*** Reached end of trace for Core: 0 Repeating trace: ./tracefiles/astar313B.trace.xz
xz: ./tracefiles/astar313B.trace.xz: No such file or directory
*** Reached end of trace for Core: 0 Repeating trace: ./tracefiles/astar313B.trace.xz
xz: ./tracefiles/astar313B.trace.xz: No such file or directory
*** Reached end of trace for Core: 0 Repeating trace: ./tracefiles/astar313B.trace.xz
xz: ./tracefiles/astar313B.trace.xz: No such file or directory
*** Reached end of trace for Core: 0 Repeating trace: ./tracefiles/astar313B.trace.xz
xz: ./tracefiles/astar313B.trace.xz: No such file or directory
*** Reached end of trace for Core: 0 Repeating trace: ./tracefiles/astar313B.trace.xz
xz: ./tracefiles/astar313B.trace.xz: No such file or directory
*** Reached end of trace for Core: 0 Repeating trace: ./tracefiles/astar313B.trace.xz
xz: ./tracefiles/astar313B.trace.xz: No such file or directory
*** Reached end of trace for Core: 0 Repeating trace: ./tracefiles/astar313B.trace.xz
xz: ./tracefiles/astar313B.trace.xz: No such file or directory
*** Reached end of trace for Core: 0 Repeating trace: ./tracefiles/astar313B.trace.xz
xz: ./tracefiles/astar313B.trace.xz: No such file or directory
*** Reached end of trace for Core: 0 Repeating trace: ./tracefiles/astar313B.trace.xz
xz: ./tracefiles/astar313B.trace.xz: No such file or directory
*** Reached end of trace for Core: 0 Repeating trace: ./tracefiles/astar313B.trace.xz
xz: ./tracefiles/astar313B.trace.xz: No such file or directory
*** Reached end of trace for Core: 0 Repeating trace: ./tracefiles/astar313B.trace.xz
xz: ./tracefiles/astar313B.trace.xz: No such file or directory
*** Reached end of trace for Core: 0 Repeating trace: ./tracefiles/astar313B.trace.xz
xz: ./tracefiles/astar313B.trace.xz: No such file or directory
*** Reached end of trace for Core: 0 Repeating trace: ./tracefiles/astar313B.trace.xz
xz: ./tracefiles/astar313B.trace.xz: No such file or directory
*** Reached end of trace for Core: 0 Repeating trace: ./tracefiles/astar313B.trace.xz
xz: ./tracefiles/astar313B.trace.xz: No such file or directory
*** Reached end of trace for Core: 0 Repeating trace: ./tracefiles/astar313B.trace.xz
xz: ./tracefiles/astar313B.trace.xz: No such file or directory
*** Reached end of trace for Core: 0 Repeating trace: ./tracefiles/astar313B.trace.xz
xz: ./tracefiles/astar313B.trace.xz: No such file or directory
*** Reached end of trace for Core: 0 Repeating trace: ./tracefiles/astar313B.trace.xz
xz: ./tracefiles/astar313B.trace.xz: No such file or directory
*** Reached end of trace for Core: 0 Repeating trace: ./tracefiles/astar313B.trace.xz
xz: ./tracefiles/astar313B.trace.xz: No such file or directory
*** Reached end of trace for Core: 0 Repeating trace: ./tracefiles/astar313B.trace.xz
xz: ./tracefiles/astar313B.trace.xz: No such file or directory
*** Reached end of trace for Core: 0 Repeating trace: ./tracefiles/astar313B.trace.xz
xz: ./tracefiles/astar313B.trace.xz: No such file or directory
*** Reached end of trace for Core: 0 Repeating trace: ./tracefiles/astar313B.trace.xz
xz: ./tracefiles/astar313B.trace.xz: No such file or directory
*** Reached end of trace for Core: 0 Repeating trace: ./tracefiles/astar313B.trace.xz
xz: ./tracefiles/astar313B.trace.xz: No such file or directory
*** Reached end of trace for Core: 0 Repeating trace: ./tracefiles/astar313B.trace.xz
xz: ./tracefiles/astar313B.trace.xz: No such file or directory
*** Reached end of trace for Core: 0 Repeating trace: ./tracefiles/astar313B.trace.xz
xz: ./tracefiles/astar313B.trace.xz: No such file or directory
*** Reached end of trace for Core: 0 Repeating trace: ./tracefiles/astar313B.trace.xz
xz: ./tracefiles/astar313B.trace.xz: No such file or directory
*** Reached end of trace for Core: 0 Repeating trace: ./tracefiles/astar313B.trace.xz
xz: ./tracefiles/astar313B.trace.xz: No such file or directory
*** Reached end of trace for Core: 0 Repeating trace: ./tracefiles/astar313B.trace.xz
xz: ./tracefiles/astar313B.trace.xz: No such file or directory
*** Reached end of trace for Core: 0 Repeating trace: ./tracefiles/astar313B.trace.xz
xz: ./tracefiles/astar313B.trace.xz: No such file or directory
*** Reached end of trace for Core: 0 Repeating trace: ./tracefiles/astar313B.trace.xz
xz: ./tracefiles/astar313B.trace.xz: No such file or directory
*** Reached end of trace for Core: 0 Repeating trace: ./tracefiles/astar313B.trace.xz
xz: ./tracefiles/astar313B.trace.xz: No such file or directory
*** Reached end of trace for Core: 0 Repeating trace: ./tracefiles/astar313B.trace.xz
xz: ./tracefiles/astar313B.trace.xz: No such file or directory
*** Reached end of trace for Core: 0 Repeating trace: ./tracefiles/astar313B.trace.xz
xz: ./tracefiles/astar313B.trace.xz: No such file or directory
*** Reached end of trace for Core: 0 Repeating trace: ./tracefiles/astar313B.trace.xz
xz: ./tracefiles/astar313B.trace.xz: No such file or directory
*** Reached end of trace for Core: 0 Repeating trace: ./tracefiles/astar313B.trace.xz
xz: ./tracefiles/astar313B.trace.xz: No such file or directory
*** Reached end of trace for Core: 0 Repeating trace: ./tracefiles/astar313B.trace.xz
xz: ./tracefiles/astar313B.trace.xz: No such file or directory
*** Reached end of trace for Core: 0 Repeating trace: ./tracefiles/astar313B.trace.xz
xz: ./tracefiles/astar313B.trace.xz: No such file or directory
*** Reached end of trace for Core: 0 Repeating trace: ./tracefiles/astar313B.trace.xz
xz: ./tracefiles/astar313B.trace.xz: No such file or directory
*** Reached end of trace for Core: 0 Repeating trace: ./tracefiles/astar313B.trace.xz
xz: ./tracefiles/astar313B.trace.xz: No such file or directory
*** Reached end of trace for Core: 0 Repeating trace: ./tracefiles/astar313B.trace.xz
xz: ./tracefiles/astar313B.trace.xz: No such file or directory
*** Reached end of trace for Core: 0 Repeating trace: ./tracefiles/astar313B.trace.xz
xz: ./tracefiles/astar313B.trace.xz: No such file or directory
*** Reached end of trace for Core: 0 Repeating trace: ./tracefiles/astar313B.trace.xz
xz: ./tracefiles/astar313B.trace.xz: No such file or directory
*** Reached end of trace for Core: 0 Repeating trace: ./tracefiles/astar313B.trace.xz
xz: ./tracefiles/astar313B.trace.xz: No such file or directory
*** Reached end of trace for Core: 0 Repeating trace: ./tracefiles/astar313B.trace.xz
xz: ./tracefiles/astar313B.trace.xz: No such file or directory
*** Reached end of trace for Core: 0 Repeating trace: ./tracefiles/astar313B.trace.xz
xz: ./tracefiles/astar313B.trace.xz: No such file or directory
*** Reached end of trace for Core: 0 Repeating trace: ./tracefiles/astar313B.trace.xz
xz: ./tracefiles/astar313B.trace.xz: No such file or directory
*** Reached end of trace for Core: 0 Repeating trace: ./tracefiles/astar313B.trace.xz
xz: ./tracefiles/astar313B.trace.xz: No such file or directory
*** Reached end of trace for Core: 0 Repeating trace: ./tracefiles/astar313B.trace.xz
xz: ./tracefiles/astar313B.trace.xz: No such file or directory
*** Reached end of trace for Core: 0 Repeating trace: ./tracefiles/astar313B.trace.xz
xz: ./tracefiles/astar313B.trace.xz: No such file or directory
*** Reached end of trace for Core: 0 Repeating trace: ./tracefiles/astar313B.trace.xz
xz: ./tracefiles/astar313B.trace.xz: No such file or directory
*** Reached end of trace for Core: 0 Repeating trace: ./tracefiles/astar313B.trace.xz
xz: ./tracefiles/astar313B.trace.xz: No such file or directory
*** Reached end of trace for Core: 0 Repeating trace: ./tracefiles/astar313B.trace.xz
xz: ./tracefiles/astar313B.trace.xz: No such file or directory
*** Reached end of trace for Core: 0 Repeating trace: ./tracefiles/astar313B.trace.xz
xz: ./tracefiles/astar313B.trace.xz: No such file or directory
*** Reached end of trace for Core: 0 Repeating trace: ./tracefiles/astar313B.trace.xz
xz: ./tracefiles/astar313B.trace.xz: No such file or directory
*** Reached end of trace for Core: 0 Repeating trace: ./tracefiles/astar313B.trace.xz
xz: ./tracefiles/astar313B.trace.xz: No such file or directory
*** Reached end of trace for Core: 0 Repeating trace: ./tracefiles/astar313B.trace.xz
xz: ./tracefiles/astar313B.trace.xz: No such file or directory
*** Reached end of trace for Core: 0 Repeating trace: ./tracefiles/astar313B.trace.xz
xz: ./tracefiles/astar313B.trace.xz: No such file or directory
*** Reached end of trace for Core: 0 Repeating trace: ./tracefiles/astar313B.trace.xz
xz: ./tracefiles/astar313B.trace.xz: No such file or directory
*** Reached end of trace for Core: 0 Repeating trace: ./tracefiles/astar313B.trace.xz
xz: ./tracefiles/astar313B.trace.xz: No such file or directory
*** Reached end of trace for Core: 0 Repeating trace: ./tracefiles/astar313B.trace.xz
xz: ./tracefiles/astar313B.trace.xz: No such file or directory
*** Reached end of trace for Core: 0 Repeating trace: ./tracefiles/astar313B.trace.xz
xz: ./tracefiles/astar313B.trace.xz: No such file or directory
*** Reached end of trace for Core: 0 Repeating trace: ./tracefiles/astar313B.trace.xz
xz: ./tracefiles/astar313B.trace.xz: No such file or directory
*** Reached end of trace for Core: 0 Repeating trace: ./tracefiles/astar313B.trace.xz
xz: ./tracefiles/astar313B.trace.xz: No such file or directory
*** Reached end of trace for Core: 0 Repeating trace: ./tracefiles/astar313B.trace.xz
xz: ./tracefiles/astar313B.trace.xz: No such file or directory
*** Reached end of trace for Core: 0 Repeating trace: ./tracefiles/astar313B.trace.xz
xz: ./tracefiles/astar313B.trace.xz: No such file or directory
*** Reached end of trace for Core: 0 Repeating trace: ./tracefiles/astar313B.trace.xz
xz: ./tracefiles/astar313B.trace.xz: No such file or directory
*** Reached end of trace for Core: 0 Repeating trace: ./tracefiles/astar313B.trace.xz
xz: ./tracefiles/astar313B.trace.xz: No such file or directory
*** Reached end of trace for Core: 0 Repeating trace: ./tracefiles/astar313B.trace.xz
xz: ./tracefiles/astar313B.trace.xz: No such file or directory
*** Reached end of trace for Core: 0 Repeating trace: ./tracefiles/astar313B.trace.xz
xz: ./tracefiles/astar313B.trace.xz: No such file or directory
*** Reached end of trace for Core: 0 Repeating trace: ./tracefiles/astar313B.trace.xz
xz: ./tracefiles/astar313B.trace.xz: No such file or directory
*** Reached end of trace for Core: 0 Repeating trace: ./tracefiles/astar313B.trace.xz
xz: ./tracefiles/astar313B.trace.xz: No such file or directory
*** Reached end of trace for Core: 0 Repeating trace: ./tracefiles/astar313B.trace.xz
xz: ./tracefiles/astar313B.trace.xz: No such file or directory
*** Reached end of trace for Core: 0 Repeating trace: ./tracefiles/astar313B.trace.xz
xz: ./tracefiles/astar313B.trace.xz: No such file or directory
[...]
xz: ./tracefiles/astar313B.trace.xz: No such file or directory
*** Reached end of trace for Core: 0 Repeating trace: ./tracefiles/astar313B.trace.xz
xz: ./tracefiles/astar313B.trace.xz: No such file or directory
*** Reached end of trace for Core: 0 Repeating trace: ./tracefiles/astar313B.trace.xz
xz: ./tracefiles/astar313B.trace.xz: No such file or directory
*** Reached end of trace for Core: 0 Repeating trace: ./tracefiles/astar313B.trace.xz
xz: ./tracefiles/astar313B.trace.xz: No such file or directory
*** Reached end of trace for Core: 0 Repeating trace: ./tracefiles/astar313B.trace.xz
xz: ./tracefiles/astar313B.trace.xz: No such file or directory
*** Reached end of trace for Core: 0 Repeating trace: ./tracefiles/astar313B.trace.xz
xz: ./tracefiles/astar313B.trace.xz: No such file or directory
*** Reached end of trace for Core: 0 Repeating trace: ./tracefiles/astar313B.trace.xz
xz: ./tracefiles/astar313B.trace.xz: No such file or directory
*** Reached end of trace for Core: 0 Repeating trace: ./tracefiles/astar313B.trace.xz
xz: ./tracefiles/astar313B.trace.xz: No such file or directory
*** Reached end of trace for Core: 0 Repeating trace: ./tracefiles/astar313B.trace.xz
xz: ./tracefiles/astar313B.trace.xz: No such file or directory
*** Reached end of trace for Core: 0 Repeating trace: ./tracefiles/astar313B.trace.xz
xz: ./tracefiles/astar313B.trace.xz: No such file or directory
*** Reached end of trace for Core: 0 Repeating trace: ./tracefiles/astar313B.trace.xz
xz: ./tracefiles/astar313B.trace.xz: No such file or directory
*** Reached end of trace for Core: 0 Repeating trace: ./tracefiles/astar313B.trace.xz
xz: ./tracefiles/astar313B.trace.xz: No such file or directory
*** Reached end of trace for Core: 0 Repeating trace: ./tracefiles/astar313B.trace.xz
xz: ./tracefiles/astar313B.trace.xz: No such file or directory
*** Reached end of trace for Core: 0 Repeating trace: ./tracefiles/astar313B.trace.xz
xz: ./tracefiles/astar313B.trace.xz: No such file or directory
*** Reached end of trace for Core: 0 Repeating trace: ./tracefiles/astar313B.trace.xz
xz: ./tracefiles/astar313B.trace.xz: No such file or directory
*** Reached end of trace for Core: 0 Repeating trace: ./tracefiles/astar313B.trace.xz
xz: ./tracefiles/astar313B.trace.xz: No such file or directory
*** Reached end of trace for Core: 0 Repeating trace: ./tracefiles/astar313B.trace.xz
xz: ./tracefiles/astar313B.trace.xz: No such file or directory
*** Reached end of trace for Core: 0 Repeating trace: ./tracefiles/astar313B.trace.xz
xz: ./tracefiles/astar313B.trace.xz: No such file or directory
*** Reached end of trace for Core: 0 Repeating trace: ./tracefiles/astar313B.trace.xz
xz: ./tracefiles/astar313B.trace.xz: No such file or directory
*** Reached end of trace for Core: 0 Repeating trace: ./tracefiles/astar313B.trace.xz
xz: ./tracefiles/astar313B.trace.xz: No such file or directory
*** Reached end of trace for Core: 0 Repeating trace: ./tracefiles/astar313B.trace.xz
xz: ./tracefiles/astar313B.trace.xz: No such file or directory
*** Reached end of trace for Core: 0 Repeating trace: ./tracefiles/astar313B.trace.xz
xz: ./tracefiles/astar313B.trace.xz: No such file or directory
*** Reached end of trace for Core: 0 Repeating trace: ./tracefiles/astar313B.trace.xz
xz: ./tracefiles/astar313B.trace.xz: No such file or directory
*** Reached end of trace for Core: 0 Repeating trace: ./tracefiles/astar313B.trace.xz
xz: ./tracefiles/astar313B.trace.xz: No such file or directory
*** Reached end of trace for Core: 0 Repeating trace: ./tracefiles/astar313B.trace.xz
xz: ./tracefiles/astar313B.trace.xz: No such file or directory
*** Reached end of trace for Core: 0 Repeating trace: ./tracefiles/astar313B.trace.xz
xz: ./tracefiles/astar313B.trace.xz: No such file or directory
*** Reached end of trace for Core: 0 Repeating trace: ./tracefiles/astar313B.trace.xz
xz: ./tracefiles/astar313B.trace.xz: No such file or directory
*** Reached end of trace for Core: 0 Repeating trace: ./tracefiles/astar313B.trace.xz
xz: ./tracefiles/astar313B.trace.xz: No such file or directory
*** Reached end of trace for Core: 0 Repeating trace: ./tracefiles/astar313B.trace.xz
xz: ./tracefiles/astar313B.trace.xz: No such file or directory
*** Reached end of trace for Core: 0 Repeating trace: ./tracefiles/astar313B.trace.xz
xz: ./tracefiles/astar313B.trace.xz: No such file or directory
*** Reached end of trace for Core: 0 Repeating trace: ./tracefiles/astar313B.trace.xz
xz: ./tracefiles/astar313B.trace.xz: No such file or directory
*** Reached end of trace for Core: 0 Repeating trace: ./tracefiles/astar313B.trace.xz
xz: ./tracefiles/astar313B.trace.xz: No such file or directory
*** Reached end of trace for Core: 0 Repeating trace: ./tracefiles/astar313B.trace.xz
xz: ./tracefiles/astar313B.trace.xz: No such file or directory
*** Reached end of trace for Core: 0 Repeating trace: ./tracefiles/astar313B.trace.xz
xz: ./tracefiles/astar313B.trace.xz: No such file or directory
*** Reached end of trace for Core: 0 Repeating trace: ./tracefiles/astar313B.trace.xz
xz: ./tracefiles/astar313B.trace.xz: No such file or directory
*** Reached end of trace for Core: 0 Repeating trace: ./tracefiles/astar313B.trace.xz
xz: ./tracefiles/astar313B.trace.xz: No such file or directory
*** Reached end of trace for Core: 0 Repeating trace: ./tracefiles/astar313B.trace.xz
xz: ./tracefiles/astar313B.trace.xz: No such file or directory
*** Reached end of trace for Core: 0 Repeating trace: ./tracefiles/astar313B.trace.xz
xz: ./tracefiles/astar313B.trace.xz: No such file or directory
*** Reached end of trace for Core: 0 Repeating trace: ./tracefiles/astar313B.trace.xz
xz: ./tracefiles/astar313B.trace.xz: No such file or directory
*** Reached end of trace for Core: 0 Repeating trace: ./tracefiles/astar313B.trace.xz
xz: ./tracefiles/astar313B.trace.xz: No such file or directory
*** Reached end of trace for Core: 0 Repeating trace: ./tracefiles/astar313B.trace.xz
xz: ./tracefiles/astar313B.trace.xz: No such file or directory
*** Reached end of trace for Core: 0 Repeating trace: ./tracefiles/astar313B.trace.xz
xz: ./tracefiles/astar313B.trace.xz: No such file or directory
*** Reached end of trace for Core: 0 Repeating trace: ./tracefiles/astar313B.trace.xz
xz: ./tracefiles/astar313B.trace.xz: No such file or directory
*** Reached end of trace for Core: 0 Repeating trace: ./tracefiles/astar313B.trace.xz
xz: ./tracefiles/astar313B.trace.xz: No such file or directory
*** Reached end of trace for Core: 0 Repeating trace: ./tracefiles/astar313B.trace.xz
xz: ./tracefiles/astar313B.trace.xz: No such file or directory
*** Reached end of trace for Core: 0 Repeating trace: ./tracefiles/astar313B.trace.xz
xz: ./tracefiles/astar313B.trace.xz: No such file or directory
*** Reached end of trace for Core: 0 Repeating trace: ./tracefiles/astar313B.trace.xz
xz: ./tracefiles/astar313B.trace.xz: No such file or directory
*** Reached end of trace for Core: 0 Repeating trace: ./tracefiles/astar313B.trace.xz
xz: ./tracefiles/astar313B.trace.xz: No such file or directory
*** Reached end of trace for Core: 0 Repeating trace: ./tracefiles/astar313B.trace.xz
xz: ./tracefiles/astar313B.trace.xz: No such file or directory
*** Reached end of trace for Core: 0 Repeating trace: ./tracefiles/astar313B.trace.xz
xz: ./tracefiles/astar313B.trace.xz: No such file or directory
*** Reached end of trace for Core: 0 Repeating trace: ./tracefiles/astar313B.trace.xz
xz: ./tracefiles/astar313B.trace.xz: No such file or directory
*** Reached end of trace for Core: 0 Repeating trace: ./tracefiles/astar313B.trace.xz
xz: ./tracefiles/astar313B.trace.xz: No such file or directory
*** Reached end of trace for Core: 0 Repeating trace: ./tracefiles/astar313B.trace.xz
xz: ./tracefiles/astar313B.trace.xz: No such file or directory
*** Reached end of trace for Core: 0 Repeating trace: ./tracefiles/astar313B.trace.xz
xz: ./tracefiles/astar313B.trace.xz: No such file or directory
*** Reached end of trace for Core: 0 Repeating trace: ./tracefiles/astar313B.trace.xz
xz: ./tracefiles/astar313B.trace.xz: No such file or directory
*** Reached end of trace for Core: 0 Repeating trace: ./tracefiles/astar313B.trace.xz
xz: ./tracefiles/astar313B.trace.xz: No such file or directory
*** Reached end of trace for Core: 0 Repeating trace: ./tracefiles/astar313B.trace.xz
xz: ./tracefiles/astar313B.trace.xz: No such file or directory
*** Reached end of trace for Core: 0 Repeating trace: ./tracefiles/astar313B.trace.xz
xz: ./tracefiles/astar313B.trace.xz: No such file or directory
*** Reached end of trace for Core: 0 Repeating trace: ./tracefiles/astar313B.trace.xz
xz: ./tracefiles/astar313B.trace.xz: No such file or directory
*** Reached end of trace for Core: 0 Repeating trace: ./tracefiles/astar313B.trace.xz
xz: ./tracefiles/astar313B.trace.xz: No such file or directory
*** Reached end of trace for Core: 0 Repeating trace: ./tracefiles/astar313B.trace.xz
xz: ./tracefiles/astar313B.trace.xz: No such file or directory
*** Reached end of trace for Core: 0 Repeating trace: ./tracefiles/astar313B.trace.xz
xz: ./tracefiles/astar313B.trace.xz: No such file or directory
*** Reached end of trace for Core: 0 Repeating trace: ./tracefiles/astar313B.trace.xz
xz: ./tracefiles/astar313B.trace.xz: No such file or directory
*** Reached end of trace for Core: 0 Repeating trace: ./tracefiles/astar313B.trace.xz
xz: ./tracefiles/astar313B.trace.xz: No such file or directory
*** Reached end of trace for Core: 0 Repeating trace: ./tracefiles/astar313B.trace.xz
xz: ./tracefiles/astar313B.trace.xz: No such file or directory
*** Reached end of trace for Core: 0 Repeating trace: ./tracefiles/astar313B.trace.xz
xz: ./tracefiles/astar313B.trace.xz: No such file or directory
*** Reached end of trace for Core: 0 Repeating trace: ./tracefiles/astar313B.trace.xz
xz: ./tracefiles/astar313B.trace.xz: No such file or directory
*** Reached end of trace for Core: 0 Repeating trace: ./tracefiles/astar313B.trace.xz
xz: ./tracefiles/astar313B.trace.xz: No such file or directory
*** Reached end of trace for Core: 0 Repeating trace: ./tracefiles/astar313B.trace.xz
xz: ./tracefiles/astar313B.trace.xz: No such file or directory
*** Reached end of trace for Core: 0 Repeating trace: ./tracefiles/astar313B.trace.xz
xz: ./tracefiles/astar313B.trace.xz: No such file or directory
*** Reached end of trace for Core: 0 Repeating trace: ./tracefiles/astar313B.trace.xz
xz: ./tracefiles/astar313B.trace.xz: No such file or directory
*** Reached end of trace for Core: 0 Repeating trace: ./tracefiles/astar313B.trace.xz
xz: ./tracefiles/astar313B.trace.xz: No such file or directory
*** Reached end of trace for Core: 0 Repeating trace: ./tracefiles/astar313B.trace.xz
xz: ./tracefiles/astar313B.trace.xz: No such file or directory
*** Reached end of trace for Core: 0 Repeating trace: ./tracefiles/astar313B.trace.xz
xz: ./tracefiles/astar313B.trace.xz: No such file or directory
*** Reached end of trace for Core: 0 Repeating trace: ./tracefiles/astar313B.trace.xz
xz: ./tracefiles/astar313B.trace.xz: No such file or directory
*** Reached end of trace for Core: 0 Repeating trace: ./tracefiles/astar313B.trace.xz
xz: ./tracefiles/astar313B.trace.xz: No such file or directory
*** Reached end of trace for Core: 0 Repeating trace: ./tracefiles/astar313B.trace.xz
xz: ./tracefiles/astar313B.trace.xz: No such file or directory
*** Reached end of trace for Core: 0 Repeating trace: ./tracefiles/astar313B.trace.xz
xz: ./tracefiles/astar313B.trace.xz: No such file or directory
*** Reached end of trace for Core: 0 Repeating trace: ./tracefiles/astar313B.trace.xz
xz: ./tracefiles/astar313B.trace.xz: No such file or directory
*** Reached end of trace for Core: 0 Repeating trace: ./tracefiles/astar313B.trace.xz
xz: ./tracefiles/astar313B.trace.xz: No such file or directory
*** Reached end of trace for Core: 0 Repeating trace: ./tracefiles/astar313B.trace.xz
xz: ./tracefiles/astar313B.trace.xz: No such file or directory
*** Reached end of trace for Core: 0 Repeating trace: ./tracefiles/astar313B.trace.xz
xz: ./tracefiles/astar313B.trace.xz: No such file or directory
*** Reached end of trace for Core: 0 Repeating trace: ./tracefiles/astar313B.trace.xz
xz: ./tracefiles/astar313B.trace.xz: No such file or directory
*** Reached end of trace for Core: 0 Repeating trace: ./tracefiles/astar313B.trace.xz
xz: ./tracefiles/astar313B.trace.xz: No such file or directory
*** Reached end of trace for Core: 0 Repeating trace: ./tracefiles/astar313B.trace.xz
xz: ./tracefiles/astar313B.trace.xz: No such file or directory
*** Reached end of trace for Core: 0 Repeating trace: ./tracefiles/astar313B.trace.xz
xz: ./tracefiles/astar313B.trace.xz: No such file or directory
*** Reached end of trace for Core: 0 Repeating trace: ./tracefiles/astar313B.trace.xz
xz: ./tracefiles/astar313B.trace.xz: No such file or directory
*** Reached end of trace for Core: 0 Repeating trace: ./tracefiles/astar313B.trace.xz
xz: ./tracefiles/astar313B.trace.xz: No such file or directory
*** Reached end of trace for Core: 0 Repeating trace: ./tracefiles/astar313B.trace.xz
xz: ./tracefiles/astar313B.trace.xz: No such file or directory
*** Reached end of trace for Core: 0 Repeating trace: ./tracefiles/astar313B.trace.xz
xz: ./tracefiles/astar313B.trace.xz: No such file or directory
*** Reached end of trace for Core: 0 Repeating trace: ./tracefiles/astar313B.trace.xz
xz: ./tracefiles/astar313B.trace.xz: No such file or directory
*** Reached end of trace for Core: 0 Repeating trace: ./tracefiles/astar313B.trace.xz
xz: ./tracefiles/astar313B.trace.xz: No such file or directory
*** Reached end of trace for Core: 0 Repeating trace: ./tracefiles/astar313B.trace.xz
xz: ./tracefiles/astar313B.trace.xz: No such file or directory
*** Reached end of trace for Core: 0 Repeating trace: ./tracefiles/astar313B.trace.xz
xz: ./tracefiles/astar313B.trace.xz: No such file or directory
*** Reached end of trace for Core: 0 Repeating trace: ./tracefiles/astar313B.trace.xz
xz: ./tracefiles/astar313B.trace.xz: No such file or directory
*** Reached end of trace for Core: 0 Repeating trace: ./tracefiles/astar313B.trace.xz
xz: ./tracefiles/astar313B.trace.xz: No such file or directory
*** Reached end of trace for Core: 0 Repeating trace: ./tracefiles/astar313B.trace.xz
xz: ./tracefiles/astar313B.trace.xz: No such file or directory
*** Reached end of trace for Core: 0 Repeating trace: ./tracefiles/astar313B.trace.xz
xz: ./tracefiles/astar313B.trace.xz: No such file or directory
*** Reached end of trace for Core: 0 Repeating trace: ./tracefiles/astar313B.trace.xz
xz: ./tracefiles/astar313B.trace.xz: No such file or directory
*** Reached end of trace for Core: 0 Repeating trace: ./tracefiles/astar313B.trace.xz
xz: ./tracefiles/astar313B.trace.xz: No such file or directory
*** Reached end of trace for Core: 0 Repeating trace: ./tracefiles/astar313B.trace.xz
xz: ./tracefiles/astar313B.trace.xz: No such file or directory
*** Reached end of trace for Core: 0 Repeating trace: ./tracefiles/astar313B.trace.xz
xz: ./tracefiles/astar313B.trace.xz: No such file or directory
*** Reached end of trace for Core: 0 Repeating trace: ./tracefiles/astar313B.trace.xz
xz: ./tracefiles/astar313B.trace.xz: No such file or directory
*** Reached end of trace for Core: 0 Repeating trace: ./tracefiles/astar313B.trace.xz
xz: ./tracefiles/astar313B.trace.xz: No such file or directory
*** Reached end of trace for Core: 0 Repeating trace: ./tracefiles/astar313B.trace.xz
xz: ./tracefiles/astar313B.trace.xz: No such file or directory
*** Reached end of trace for Core: 0 Repeating trace: ./tracefiles/astar313B.trace.xz
xz: ./tracefiles/astar313B.trace.xz: No such file or directory
*** Reached end of trace for Core: 0 Repeating trace: ./tracefiles/astar313B.trace.xz
xz: ./tracefiles/astar313B.trace.xz: No such file or directory
*** Reached end of trace for Core: 0 Repeating trace: ./tracefiles/astar313B.trace.xz
xz: ./tracefiles/astar313B.trace.xz: No such file or directory
*** Reached end of trace for Core: 0 Repeating trace: ./tracefiles/astar313B.trace.xz
xz: ./tracefiles/astar313B.trace.xz: No such file or directory
*** Reached end of trace for Core: 0 Repeating trace: ./tracefiles/astar313B.trace.xz
xz: ./tracefiles/astar313B.trace.xz: No such file or directory
*** Reached end of trace for Core: 0 Repeating trace: ./tracefiles/astar313B.trace.xz
xz: ./tracefiles/astar313B.trace.xz: No such file or directory
*** Reached end of trace for Core: 0 Repeating trace: ./tracefiles/astar313B.trace.xz
xz: ./tracefiles/astar313B.trace.xz: No such file or directory
*** Reached end of trace for Core: 0 Repeating trace: ./tracefiles/astar313B.trace.xz
xz: ./tracefiles/astar313B.trace.xz: No such file or directory
*** Reached end of trace for Core: 0 Repeating trace: ./tracefiles/astar313B.trace.xz
xz: ./tracefiles/astar313B.trace.xz: No such file or directory
*** Reached end of trace for Core: 0 Repeating trace: ./tracefiles/astar313B.trace.xz
xz: ./tracefiles/astar313B.trace.xz: No such file or directory
*** Reached end of trace for Core: 0 Repeating trace: ./tracefiles/astar313B.trace.xz
xz: ./tracefiles/astar313B.trace.xz: No such file or directory
*** Reached end of trace for Core: 0 Repeating trace: ./tracefiles/astar313B.trace.xz
xz: ./tracefiles/astar313B.trace.xz: No such file or directory
*** Reached end of trace for Core: 0 Repeating trace: ./tracefiles/astar313B.trace.xz
xz: ./tracefiles/astar313B.trace.xz: No such file or directory
*** Reached end of trace for Core: 0 Repeating trace: ./tracefiles/astar313B.trace.xz
xz: ./tracefiles/astar313B.trace.xz: No such file or directory
*** Reached end of trace for Core: 0 Repeating trace: ./tracefiles/astar313B.trace.xz
xz: ./tracefiles/astar313B.trace.xz: No such file or directory
*** Reached end of trace for Core: 0 Repeating trace: ./tracefiles/astar313B.trace.xz
xz: ./tracefiles/astar313B.trace.xz: No such file or directory
*** Reached end of trace for Core: 0 Repeating trace: ./tracefiles/astar313B.trace.xz
xz: ./tracefiles/astar313B.trace.xz: No such file or directory
*** Reached end of trace for Core: 0 Repeating trace: ./tracefiles/astar313B.trace.xz
xz: ./tracefiles/astar313B.trace.xz: No such file or directory
*** Reached end of trace for Core: 0 Repeating trace: ./tracefiles/astar313B.trace.xz
xz: ./tracefiles/astar313B.trace.xz: No such file or directory
*** Reached end of trace for Core: 0 Repeating trace: ./tracefiles/astar313B.trace.xz
xz: ./tracefiles/astar313B.trace.xz: No such file or directory
*** Reached end of trace for Core: 0 Repeating trace: ./tracefiles/astar313B.trace.xz
xz: ./tracefiles/astar313B.trace.xz: No such file or directory
*** Reached end of trace for Core: 0 Repeating trace: ./tracefiles/astar313B.trace.xz
xz: ./tracefiles/astar313B.trace.xz: No such file or directory
*** Reached end of trace for Core: 0 Repeating trace: ./tracefiles/astar313B.trace.xz
xz: ./tracefiles/astar313B.trace.xz: No such file or directory
*** Reached end of trace for Core: 0 Repeating trace: ./tracefiles/astar313B.trace.xz
xz: ./tracefiles/astar313B.trace.xz: No such file or directory
*** Reached end of trace for Core: 0 Repeating trace: ./tracefiles/astar313B.trace.xz
xz: ./tracefiles/astar313B.trace.xz: No such file or directory
*** Reached end of trace for Core: 0 Repeating trace: ./tracefiles/astar313B.trace.xz
xz: ./tracefiles/astar313B.trace.xz: No such file or directory
*** Reached end of trace for Core: 0 Repeating trace: ./tracefiles/astar313B.trace.xz
xz: ./tracefiles/astar313B.trace.xz: No such file or directory
*** Reached end of trace for Core: 0 Repeating trace: ./tracefiles/astar313B.trace.xz
xz: ./tracefiles/astar313B.trace.xz: No such file or directory
*** Reached end of trace for Core: 0 Repeating trace: ./tracefiles/astar313B.trace.xz
xz: ./tracefiles/astar313B.trace.xz: No such file or directory
*** Reached end of trace for Core: 0 Repeating trace: ./tracefiles/astar313B.trace.xz
Caught signal: 2
