
*** ChampSim Multicore Out-of-Order Simulator ***

Warmup Instructions: 2000000
Simulation Instructions: 5000000
Number of CPUs: 1
LLC sets: 2048
LLC ways: 16
Off-chip DRAM Size: 4096 MB Channels: 1 Width: 64-bit Data Rate: 1600 MT/s

CPU 0 runs ./tracefiles/astar_313B.trace.xz
CPU 0 Bimodal branch predictor

Warmup complete CPU 0 instructions: 2000003 cycles: 1461640 (Simulation time: 0 hr 0 min 2 sec) 

Caught signal: 2
