
*** ChampSim Multicore Out-of-Order Simulator ***

Warmup Instructions: 200000000
Simulation Instructions: 800000000
Number of CPUs: 1
LLC sets: 2048
LLC ways: 16
Off-chip DRAM Size: 4096 MB Channels: 1 Width: 64-bit Data Rate: 1600 MT/s

CPU 0 runs ./tracefiles/gromacs_0B.trace.xz
CPU 0 Bimodal branch predictor
Heartbeat CPU 0 instructions: 10000001 cycles: 6078698 heartbeat IPC: 1.64509 cumulative IPC: 1.64509 (Simulation time: 0 hr 0 min 14 sec) 
Heartbeat CPU 0 instructions: 20000000 cycles: 12150103 heartbeat IPC: 1.64707 cumulative IPC: 1.64608 (Simulation time: 0 hr 0 min 27 sec) 
Heartbeat CPU 0 instructions: 30000002 cycles: 18221732 heartbeat IPC: 1.647 cumulative IPC: 1.64639 (Simulation time: 0 hr 0 min 40 sec) 
Heartbeat CPU 0 instructions: 40000000 cycles: 24293066 heartbeat IPC: 1.64708 cumulative IPC: 1.64656 (Simulation time: 0 hr 0 min 54 sec) 
Heartbeat CPU 0 instructions: 50000002 cycles: 30364776 heartbeat IPC: 1.64698 cumulative IPC: 1.64664 (Simulation time: 0 hr 1 min 7 sec) 
Heartbeat CPU 0 instructions: 60000000 cycles: 36436089 heartbeat IPC: 1.64709 cumulative IPC: 1.64672 (Simulation time: 0 hr 1 min 20 sec) 
Heartbeat CPU 0 instructions: 70000003 cycles: 42507634 heartbeat IPC: 1.64703 cumulative IPC: 1.64676 (Simulation time: 0 hr 1 min 34 sec) 
Heartbeat CPU 0 instructions: 80000000 cycles: 48563213 heartbeat IPC: 1.65137 cumulative IPC: 1.64734 (Simulation time: 0 hr 1 min 47 sec) 
Heartbeat CPU 0 instructions: 90000001 cycles: 54590392 heartbeat IPC: 1.65915 cumulative IPC: 1.64864 (Simulation time: 0 hr 2 min 1 sec) 
Heartbeat CPU 0 instructions: 100000000 cycles: 60567103 heartbeat IPC: 1.67316 cumulative IPC: 1.65106 (Simulation time: 0 hr 2 min 13 sec) 
Heartbeat CPU 0 instructions: 110000000 cycles: 66486627 heartbeat IPC: 1.68932 cumulative IPC: 1.65447 (Simulation time: 0 hr 2 min 23 sec) 
Heartbeat CPU 0 instructions: 120000000 cycles: 72385705 heartbeat IPC: 1.69518 cumulative IPC: 1.65779 (Simulation time: 0 hr 2 min 34 sec) 
Heartbeat CPU 0 instructions: 130000000 cycles: 78304614 heartbeat IPC: 1.6895 cumulative IPC: 1.66018 (Simulation time: 0 hr 2 min 45 sec) 
Heartbeat CPU 0 instructions: 140000000 cycles: 84200812 heartbeat IPC: 1.69601 cumulative IPC: 1.66269 (Simulation time: 0 hr 2 min 56 sec) 
Heartbeat CPU 0 instructions: 150000001 cycles: 90086487 heartbeat IPC: 1.69904 cumulative IPC: 1.66507 (Simulation time: 0 hr 3 min 6 sec) 
Heartbeat CPU 0 instructions: 160000000 cycles: 95972008 heartbeat IPC: 1.69908 cumulative IPC: 1.66715 (Simulation time: 0 hr 3 min 16 sec) 
Heartbeat CPU 0 instructions: 170000001 cycles: 101857451 heartbeat IPC: 1.69911 cumulative IPC: 1.669 (Simulation time: 0 hr 3 min 28 sec) 
Heartbeat CPU 0 instructions: 180000000 cycles: 107742871 heartbeat IPC: 1.69911 cumulative IPC: 1.67064 (Simulation time: 0 hr 3 min 38 sec) 
Heartbeat CPU 0 instructions: 190000000 cycles: 113628265 heartbeat IPC: 1.69912 cumulative IPC: 1.67212 (Simulation time: 0 hr 3 min 49 sec) 
Heartbeat CPU 0 instructions: 200000000 cycles: 119513946 heartbeat IPC: 1.69904 cumulative IPC: 1.67344 (Simulation time: 0 hr 3 min 59 sec) 

Warmup complete CPU 0 instructions: 200000001 cycles: 119513947 (Simulation time: 0 hr 3 min 59 sec) 

Heartbeat CPU 0 instructions: 210000002 cycles: 139175212 heartbeat IPC: 0.508614 cumulative IPC: 0.508614 (Simulation time: 0 hr 4 min 17 sec) 
Heartbeat CPU 0 instructions: 220000000 cycles: 159144598 heartbeat IPC: 0.500766 cumulative IPC: 0.50466 (Simulation time: 0 hr 4 min 34 sec) 
Heartbeat CPU 0 instructions: 230000003 cycles: 179191760 heartbeat IPC: 0.498824 cumulative IPC: 0.502699 (Simulation time: 0 hr 4 min 52 sec) 
Heartbeat CPU 0 instructions: 240000000 cycles: 199286955 heartbeat IPC: 0.497631 cumulative IPC: 0.501423 (Simulation time: 0 hr 5 min 12 sec) 
Heartbeat CPU 0 instructions: 250000000 cycles: 219337497 heartbeat IPC: 0.49874 cumulative IPC: 0.500884 (Simulation time: 0 hr 5 min 31 sec) 
Heartbeat CPU 0 instructions: 260000000 cycles: 239534660 heartbeat IPC: 0.495119 cumulative IPC: 0.499914 (Simulation time: 0 hr 5 min 50 sec) 
Heartbeat CPU 0 instructions: 270000001 cycles: 259608769 heartbeat IPC: 0.498154 cumulative IPC: 0.499662 (Simulation time: 0 hr 6 min 8 sec) 
Heartbeat CPU 0 instructions: 280000000 cycles: 279555905 heartbeat IPC: 0.501325 cumulative IPC: 0.499869 (Simulation time: 0 hr 6 min 26 sec) 
Heartbeat CPU 0 instructions: 290000002 cycles: 299724307 heartbeat IPC: 0.495825 cumulative IPC: 0.499416 (Simulation time: 0 hr 6 min 45 sec) 
Heartbeat CPU 0 instructions: 300000000 cycles: 319673849 heartbeat IPC: 0.501265 cumulative IPC: 0.499601 (Simulation time: 0 hr 7 min 5 sec) 
Heartbeat CPU 0 instructions: 310000002 cycles: 339479440 heartbeat IPC: 0.504908 cumulative IPC: 0.500078 (Simulation time: 0 hr 7 min 22 sec) 
Heartbeat CPU 0 instructions: 320000000 cycles: 359140300 heartbeat IPC: 0.508625 cumulative IPC: 0.50078 (Simulation time: 0 hr 7 min 40 sec) 
Heartbeat CPU 0 instructions: 330000001 cycles: 379104446 heartbeat IPC: 0.500898 cumulative IPC: 0.500789 (Simulation time: 0 hr 7 min 58 sec) 
Heartbeat CPU 0 instructions: 340000000 cycles: 399002399 heartbeat IPC: 0.502564 cumulative IPC: 0.500915 (Simulation time: 0 hr 8 min 16 sec) 
Heartbeat CPU 0 instructions: 350000000 cycles: 418728292 heartbeat IPC: 0.506948 cumulative IPC: 0.501313 (Simulation time: 0 hr 8 min 33 sec) 
Heartbeat CPU 0 instructions: 360000000 cycles: 438440635 heartbeat IPC: 0.507296 cumulative IPC: 0.501683 (Simulation time: 0 hr 8 min 51 sec) 
Heartbeat CPU 0 instructions: 370000002 cycles: 462014509 heartbeat IPC: 0.424199 cumulative IPC: 0.49635 (Simulation time: 0 hr 9 min 13 sec) 
Heartbeat CPU 0 instructions: 380000000 cycles: 486875998 heartbeat IPC: 0.402228 cumulative IPC: 0.48998 (Simulation time: 0 hr 9 min 35 sec) 
Heartbeat CPU 0 instructions: 390000000 cycles: 510578299 heartbeat IPC: 0.4219 cumulative IPC: 0.485854 (Simulation time: 0 hr 9 min 57 sec) 
Heartbeat CPU 0 instructions: 400000000 cycles: 534657655 heartbeat IPC: 0.415293 cumulative IPC: 0.481761 (Simulation time: 0 hr 10 min 13 sec) 
Heartbeat CPU 0 instructions: 410000001 cycles: 557726922 heartbeat IPC: 0.433477 cumulative IPC: 0.479219 (Simulation time: 0 hr 10 min 31 sec) 
Heartbeat CPU 0 instructions: 420000000 cycles: 580107909 heartbeat IPC: 0.446808 cumulative IPC: 0.477644 (Simulation time: 0 hr 10 min 49 sec) 
Heartbeat CPU 0 instructions: 430000001 cycles: 598368602 heartbeat IPC: 0.547624 cumulative IPC: 0.480313 (Simulation time: 0 hr 11 min 3 sec) 
Heartbeat CPU 0 instructions: 440000000 cycles: 606350285 heartbeat IPC: 1.25287 cumulative IPC: 0.492979 (Simulation time: 0 hr 11 min 16 sec) 
Heartbeat CPU 0 instructions: 450000002 cycles: 621124452 heartbeat IPC: 0.676857 cumulative IPC: 0.498395 (Simulation time: 0 hr 11 min 29 sec) 
Heartbeat CPU 0 instructions: 460000000 cycles: 637792893 heartbeat IPC: 0.599936 cumulative IPC: 0.50166 (Simulation time: 0 hr 11 min 41 sec) 
Heartbeat CPU 0 instructions: 470000003 cycles: 653460937 heartbeat IPC: 0.638242 cumulative IPC: 0.505668 (Simulation time: 0 hr 11 min 53 sec) 
Heartbeat CPU 0 instructions: 480000000 cycles: 667686207 heartbeat IPC: 0.702974 cumulative IPC: 0.510788 (Simulation time: 0 hr 12 min 5 sec) 
Heartbeat CPU 0 instructions: 490000001 cycles: 682419291 heartbeat IPC: 0.678745 cumulative IPC: 0.515184 (Simulation time: 0 hr 12 min 18 sec) 
Heartbeat CPU 0 instructions: 500000000 cycles: 696429810 heartbeat IPC: 0.713749 cumulative IPC: 0.520006 (Simulation time: 0 hr 12 min 30 sec) 
Heartbeat CPU 0 instructions: 510000001 cycles: 712097772 heartbeat IPC: 0.638245 cumulative IPC: 0.523133 (Simulation time: 0 hr 12 min 42 sec) 
Heartbeat CPU 0 instructions: 520000000 cycles: 727082896 heartbeat IPC: 0.667328 cumulative IPC: 0.526689 (Simulation time: 0 hr 12 min 53 sec) 
Heartbeat CPU 0 instructions: 530000003 cycles: 741092149 heartbeat IPC: 0.713814 cumulative IPC: 0.530907 (Simulation time: 0 hr 13 min 5 sec) 
Heartbeat CPU 0 instructions: 540000000 cycles: 753730537 heartbeat IPC: 0.79124 cumulative IPC: 0.536094 (Simulation time: 0 hr 13 min 18 sec) 
Heartbeat CPU 0 instructions: 550000001 cycles: 763652363 heartbeat IPC: 1.00788 cumulative IPC: 0.543361 (Simulation time: 0 hr 13 min 32 sec) 
Heartbeat CPU 0 instructions: 560000000 cycles: 773228045 heartbeat IPC: 1.04431 cumulative IPC: 0.550699 (Simulation time: 0 hr 13 min 45 sec) 
Heartbeat CPU 0 instructions: 570000003 cycles: 783952248 heartbeat IPC: 0.932471 cumulative IPC: 0.556861 (Simulation time: 0 hr 13 min 58 sec) 
Heartbeat CPU 0 instructions: 580000000 cycles: 792607853 heartbeat IPC: 1.15532 cumulative IPC: 0.564557 (Simulation time: 0 hr 14 min 11 sec) 
Heartbeat CPU 0 instructions: 590000001 cycles: 803890678 heartbeat IPC: 0.886303 cumulative IPC: 0.569862 (Simulation time: 0 hr 14 min 24 sec) 
Heartbeat CPU 0 instructions: 600000000 cycles: 812694216 heartbeat IPC: 1.13591 cumulative IPC: 0.57705 (Simulation time: 0 hr 14 min 37 sec) 
Heartbeat CPU 0 instructions: 610000001 cycles: 824073229 heartbeat IPC: 0.878811 cumulative IPC: 0.581924 (Simulation time: 0 hr 14 min 51 sec) 
Heartbeat CPU 0 instructions: 620000000 cycles: 832817716 heartbeat IPC: 1.14358 cumulative IPC: 0.588809 (Simulation time: 0 hr 15 min 4 sec) 
Heartbeat CPU 0 instructions: 630000000 cycles: 843999815 heartbeat IPC: 0.894287 cumulative IPC: 0.593524 (Simulation time: 0 hr 15 min 18 sec) 
Heartbeat CPU 0 instructions: 640000000 cycles: 852816887 heartbeat IPC: 1.13416 cumulative IPC: 0.600025 (Simulation time: 0 hr 15 min 31 sec) 
Heartbeat CPU 0 instructions: 650000000 cycles: 864342513 heartbeat IPC: 0.867632 cumulative IPC: 0.604166 (Simulation time: 0 hr 15 min 44 sec) 
Heartbeat CPU 0 instructions: 660000000 cycles: 873199235 heartbeat IPC: 1.12909 cumulative IPC: 0.610334 (Simulation time: 0 hr 15 min 57 sec) 
Heartbeat CPU 0 instructions: 670000002 cycles: 885207586 heartbeat IPC: 0.832754 cumulative IPC: 0.613823 (Simulation time: 0 hr 16 min 11 sec) 
Heartbeat CPU 0 instructions: 680000000 cycles: 894103442 heartbeat IPC: 1.12412 cumulative IPC: 0.619683 (Simulation time: 0 hr 16 min 24 sec) 
Heartbeat CPU 0 instructions: 690000001 cycles: 904181727 heartbeat IPC: 0.992232 cumulative IPC: 0.624468 (Simulation time: 0 hr 16 min 37 sec) 
Heartbeat CPU 0 instructions: 700000000 cycles: 914737464 heartbeat IPC: 0.947352 cumulative IPC: 0.628754 (Simulation time: 0 hr 16 min 51 sec) 
Heartbeat CPU 0 instructions: 710000003 cycles: 923702591 heartbeat IPC: 1.11543 cumulative IPC: 0.63418 (Simulation time: 0 hr 17 min 4 sec) 
Heartbeat CPU 0 instructions: 720000000 cycles: 935778242 heartbeat IPC: 0.828112 cumulative IPC: 0.637049 (Simulation time: 0 hr 17 min 17 sec) 
Heartbeat CPU 0 instructions: 730000001 cycles: 944670274 heartbeat IPC: 1.1246 cumulative IPC: 0.642303 (Simulation time: 0 hr 17 min 31 sec) 
Heartbeat CPU 0 instructions: 740000000 cycles: 955275511 heartbeat IPC: 0.94293 cumulative IPC: 0.646117 (Simulation time: 0 hr 17 min 45 sec) 
Heartbeat CPU 0 instructions: 750000000 cycles: 965403292 heartbeat IPC: 0.987383 cumulative IPC: 0.650203 (Simulation time: 0 hr 18 min 0 sec) 
Heartbeat CPU 0 instructions: 760000000 cycles: 975116146 heartbeat IPC: 1.02956 cumulative IPC: 0.65451 (Simulation time: 0 hr 18 min 14 sec) 
Heartbeat CPU 0 instructions: 770000001 cycles: 986127809 heartbeat IPC: 0.908128 cumulative IPC: 0.657732 (Simulation time: 0 hr 18 min 28 sec) 
Heartbeat CPU 0 instructions: 780000000 cycles: 995045180 heartbeat IPC: 1.12141 cumulative IPC: 0.662455 (Simulation time: 0 hr 18 min 43 sec) 
Heartbeat CPU 0 instructions: 790000001 cycles: 1006459375 heartbeat IPC: 0.876102 cumulative IPC: 0.665204 (Simulation time: 0 hr 18 min 56 sec) 
Heartbeat CPU 0 instructions: 800000000 cycles: 1015173625 heartbeat IPC: 1.14755 cumulative IPC: 0.669897 (Simulation time: 0 hr 19 min 10 sec) 
Heartbeat CPU 0 instructions: 810000000 cycles: 1026787941 heartbeat IPC: 0.861006 cumulative IPC: 0.672344 (Simulation time: 0 hr 19 min 24 sec) 
Heartbeat CPU 0 instructions: 820000000 cycles: 1035658772 heartbeat IPC: 1.12729 cumulative IPC: 0.676749 (Simulation time: 0 hr 19 min 38 sec) 
Heartbeat CPU 0 instructions: 830000001 cycles: 1047067510 heartbeat IPC: 0.876521 cumulative IPC: 0.679206 (Simulation time: 0 hr 19 min 51 sec) 
Heartbeat CPU 0 instructions: 840000000 cycles: 1055786524 heartbeat IPC: 1.14692 cumulative IPC: 0.683562 (Simulation time: 0 hr 20 min 5 sec) 
Heartbeat CPU 0 instructions: 850000002 cycles: 1067071122 heartbeat IPC: 0.886164 cumulative IPC: 0.685974 (Simulation time: 0 hr 20 min 18 sec) 
Heartbeat CPU 0 instructions: 860000000 cycles: 1075735831 heartbeat IPC: 1.15411 cumulative IPC: 0.690216 (Simulation time: 0 hr 20 min 32 sec) 
Heartbeat CPU 0 instructions: 870000001 cycles: 1087206383 heartbeat IPC: 0.871798 cumulative IPC: 0.692369 (Simulation time: 0 hr 20 min 45 sec) 
Heartbeat CPU 0 instructions: 880000000 cycles: 1095845034 heartbeat IPC: 1.15759 cumulative IPC: 0.696485 (Simulation time: 0 hr 20 min 59 sec) 
Heartbeat CPU 0 instructions: 890000002 cycles: 1107883726 heartbeat IPC: 0.830655 cumulative IPC: 0.698119 (Simulation time: 0 hr 21 min 12 sec) 
Heartbeat CPU 0 instructions: 900000000 cycles: 1116624067 heartbeat IPC: 1.14412 cumulative IPC: 0.702029 (Simulation time: 0 hr 21 min 26 sec) 
Heartbeat CPU 0 instructions: 910000002 cycles: 1128040159 heartbeat IPC: 0.875957 cumulative IPC: 0.703998 (Simulation time: 0 hr 21 min 40 sec) 
Heartbeat CPU 0 instructions: 920000000 cycles: 1136933984 heartbeat IPC: 1.12438 cumulative IPC: 0.707672 (Simulation time: 0 hr 21 min 53 sec) 
Heartbeat CPU 0 instructions: 930000000 cycles: 1148571411 heartbeat IPC: 0.859297 cumulative IPC: 0.709387 (Simulation time: 0 hr 22 min 7 sec) 
Heartbeat CPU 0 instructions: 940000000 cycles: 1157591688 heartbeat IPC: 1.10861 cumulative IPC: 0.712856 (Simulation time: 0 hr 22 min 20 sec) 
Heartbeat CPU 0 instructions: 950000000 cycles: 1168796160 heartbeat IPC: 0.892501 cumulative IPC: 0.714774 (Simulation time: 0 hr 22 min 33 sec) 
Heartbeat CPU 0 instructions: 960000000 cycles: 1178146129 heartbeat IPC: 1.06952 cumulative IPC: 0.717907 (Simulation time: 0 hr 22 min 46 sec) 
Heartbeat CPU 0 instructions: 970000000 cycles: 1189447723 heartbeat IPC: 0.884831 cumulative IPC: 0.719671 (Simulation time: 0 hr 22 min 59 sec) 
Heartbeat CPU 0 instructions: 980000000 cycles: 1200495064 heartbeat IPC: 0.905195 cumulative IPC: 0.721567 (Simulation time: 0 hr 23 min 12 sec) 
Heartbeat CPU 0 instructions: 990000001 cycles: 1210135807 heartbeat IPC: 1.03726 cumulative IPC: 0.724357 (Simulation time: 0 hr 23 min 25 sec) 
*** Reached end of trace for Core: 0 Repeating trace: ./tracefiles/gromacs_0B.trace.xz
Heartbeat CPU 0 instructions: 1000000000 cycles: 1221628698 heartbeat IPC: 0.870103 cumulative IPC: 0.725877 (Simulation time: 0 hr 23 min 38 sec) 
Finished CPU 0 instructions: 800000001 cycles: 1102114759 cumulative IPC: 0.725877 (Simulation time: 0 hr 23 min 38 sec) 

CPU 0 Branch Prediction Accuracy: 91.8583% MPKI: 8.1437

ChampSim completed all CPUs

Region of Interest Statistics

CPU 0 cumulative IPC: 0.725877 instructions: 800000001 cycles: 1102114759
L1D TOTAL     ACCESS:  219212531  HIT:  210317069  MISS:    8895462
L1D LOAD      ACCESS:  120939521  HIT:  112604549  MISS:    8334972
L1D RFO       ACCESS:   98273010  HIT:   97712520  MISS:     560490
L1D PREFETCH  ACCESS:          0  HIT:          0  MISS:          0
L1D WRITEBACK ACCESS:          0  HIT:          0  MISS:          0
L1D PREFETCH  REQUESTED:          0  ISSUED:          0  FILLED:          0  USEFUL:          0  USELESS:          0
L1I TOTAL     ACCESS:  192071528  HIT:  192069280  MISS:       2248
L1I LOAD      ACCESS:  192071528  HIT:  192069280  MISS:       2248
L1I RFO       ACCESS:          0  HIT:          0  MISS:          0
L1I PREFETCH  ACCESS:          0  HIT:          0  MISS:          0
L1I WRITEBACK ACCESS:          0  HIT:          0  MISS:          0
L1I PREFETCH  REQUESTED:          0  ISSUED:          0  FILLED:          0  USEFUL:          0  USELESS:          0
L2C TOTAL     ACCESS:   10776606  HIT:    9450254  MISS:    1326352
L2C LOAD      ACCESS:    8330801  HIT:    7312703  MISS:    1018098
L2C RFO       ACCESS:     560428  HIT:     252947  MISS:     307481
L2C PREFETCH  ACCESS:          0  HIT:          0  MISS:          0
L2C WRITEBACK ACCESS:    1885377  HIT:    1884604  MISS:        773
L2C PREFETCH  REQUESTED:          0  ISSUED:          0  FILLED:          0  USEFUL:          0  USELESS:          0
LLC TOTAL     ACCESS:    1904586  HIT:    1546462  MISS:     358124
LLC LOAD      ACCESS:    1018097  HIT:     840967  MISS:     177130
LLC RFO       ACCESS:     307480  HIT:     157783  MISS:     149697
LLC PREFETCH  ACCESS:          0  HIT:          0  MISS:          0
LLC WRITEBACK ACCESS:     579009  HIT:     547712  MISS:      31297
LLC PREFETCH  REQUESTED:          0  ISSUED:          0  FILLED:          0  USEFUL:          0  USELESS:          0
DTLB TOTAL     ACCESS:  177708110  HIT:  176676659  MISS:    1031451
DTLB LOAD      ACCESS:  107961309  HIT:  107016166  MISS:     945143
DTLB RFO       ACCESS:   69746801  HIT:   69660493  MISS:      86308
DTLB PREFETCH  ACCESS:          0  HIT:          0  MISS:          0
DTLB WRITEBACK ACCESS:          0  HIT:          0  MISS:          0
DTLB PREFETCH  REQUESTED:          0  ISSUED:          0  FILLED:          0  USEFUL:          0  USELESS:          0
ITLB TOTAL     ACCESS:  149034003  HIT:  149033864  MISS:        139
ITLB LOAD      ACCESS:  149034003  HIT:  149033864  MISS:        139
ITLB RFO       ACCESS:          0  HIT:          0  MISS:          0
ITLB PREFETCH  ACCESS:          0  HIT:          0  MISS:          0
ITLB WRITEBACK ACCESS:          0  HIT:          0  MISS:          0
ITLB PREFETCH  REQUESTED:          0  ISSUED:          0  FILLED:          0  USEFUL:          0  USELESS:          0
STLB TOTAL     ACCESS:    1031590  HIT:    1028549  MISS:       3041
STLB LOAD      ACCESS:     945282  HIT:     944344  MISS:        938
STLB RFO       ACCESS:      86308  HIT:      84205  MISS:       2103
STLB PREFETCH  ACCESS:          0  HIT:          0  MISS:          0
STLB WRITEBACK ACCESS:          0  HIT:          0  MISS:          0
STLB PREFETCH  REQUESTED:          0  ISSUED:          0  FILLED:          0  USEFUL:          0  USELESS:          0
Major fault: 0 Minor fault: 3214

Invalid block evictions: 32768
DBP Decisions: 3848
Mockingjay Decisions: 304132
Non Writeback Decisions: 49809

DB Predictions at the end: 
0 1623702
1 2646
2 2916
3 50083
4 355
5 281
6 11367
7 3
8 1281
9 41932


DRAM Statistics
 CHANNEL 0
 RQ ROW_BUFFER_HIT:     192596  ROW_BUFFER_MISS:     134157
 DBUS_CONGESTED:     280920
 WQ ROW_BUFFER_HIT:      64048  ROW_BUFFER_MISS:     144747  FULL:          0

 AVG_CONGESTED_CYCLE: 14
