
*** ChampSim Multicore Out-of-Order Simulator ***

Warmup Instructions: 200000000
Simulation Instructions: 800000000
Number of CPUs: 1
LLC sets: 2048
LLC ways: 16
Off-chip DRAM Size: 4096 MB Channels: 1 Width: 64-bit Data Rate: 1600 MT/s

CPU 0 runs ./tracefiles/hmmer_546B.trace.xz
CPU 0 Bimodal branch predictor
Heartbeat CPU 0 instructions: 10000003 cycles: 6229475 heartbeat IPC: 1.60527 cumulative IPC: 1.60527 (Simulation time: 0 hr 0 min 15 sec) 
Heartbeat CPU 0 instructions: 20000000 cycles: 12458017 heartbeat IPC: 1.60551 cumulative IPC: 1.60539 (Simulation time: 0 hr 0 min 29 sec) 
Heartbeat CPU 0 instructions: 30000000 cycles: 18685032 heartbeat IPC: 1.60591 cumulative IPC: 1.60556 (Simulation time: 0 hr 0 min 44 sec) 
Heartbeat CPU 0 instructions: 40000000 cycles: 24914760 heartbeat IPC: 1.60521 cumulative IPC: 1.60547 (Simulation time: 0 hr 0 min 59 sec) 
Heartbeat CPU 0 instructions: 50000003 cycles: 31145595 heartbeat IPC: 1.60492 cumulative IPC: 1.60536 (Simulation time: 0 hr 1 min 13 sec) 
Heartbeat CPU 0 instructions: 60000000 cycles: 37375269 heartbeat IPC: 1.60522 cumulative IPC: 1.60534 (Simulation time: 0 hr 1 min 28 sec) 
Heartbeat CPU 0 instructions: 70000000 cycles: 43603115 heartbeat IPC: 1.60569 cumulative IPC: 1.60539 (Simulation time: 0 hr 1 min 42 sec) 
Heartbeat CPU 0 instructions: 80000000 cycles: 49831839 heartbeat IPC: 1.60547 cumulative IPC: 1.6054 (Simulation time: 0 hr 1 min 57 sec) 
Heartbeat CPU 0 instructions: 90000001 cycles: 56058529 heartbeat IPC: 1.60599 cumulative IPC: 1.60546 (Simulation time: 0 hr 2 min 12 sec) 
Heartbeat CPU 0 instructions: 100000000 cycles: 62288366 heartbeat IPC: 1.60518 cumulative IPC: 1.60544 (Simulation time: 0 hr 2 min 27 sec) 
Heartbeat CPU 0 instructions: 110000001 cycles: 68516271 heartbeat IPC: 1.60568 cumulative IPC: 1.60546 (Simulation time: 0 hr 2 min 42 sec) 
Heartbeat CPU 0 instructions: 120000000 cycles: 74741198 heartbeat IPC: 1.60644 cumulative IPC: 1.60554 (Simulation time: 0 hr 2 min 56 sec) 
Heartbeat CPU 0 instructions: 130000001 cycles: 80966074 heartbeat IPC: 1.60646 cumulative IPC: 1.60561 (Simulation time: 0 hr 3 min 11 sec) 
Heartbeat CPU 0 instructions: 140000000 cycles: 87204464 heartbeat IPC: 1.60298 cumulative IPC: 1.60542 (Simulation time: 0 hr 3 min 26 sec) 
Heartbeat CPU 0 instructions: 150000002 cycles: 93429239 heartbeat IPC: 1.60648 cumulative IPC: 1.60549 (Simulation time: 0 hr 3 min 41 sec) 
Heartbeat CPU 0 instructions: 160000000 cycles: 99655689 heartbeat IPC: 1.60605 cumulative IPC: 1.60553 (Simulation time: 0 hr 3 min 55 sec) 
Heartbeat CPU 0 instructions: 170000000 cycles: 105882768 heartbeat IPC: 1.60589 cumulative IPC: 1.60555 (Simulation time: 0 hr 4 min 10 sec) 
Heartbeat CPU 0 instructions: 180000000 cycles: 112114226 heartbeat IPC: 1.60476 cumulative IPC: 1.60551 (Simulation time: 0 hr 4 min 25 sec) 
Heartbeat CPU 0 instructions: 190000001 cycles: 118344800 heartbeat IPC: 1.60499 cumulative IPC: 1.60548 (Simulation time: 0 hr 4 min 40 sec) 
Heartbeat CPU 0 instructions: 200000000 cycles: 124568690 heartbeat IPC: 1.60671 cumulative IPC: 1.60554 (Simulation time: 0 hr 4 min 56 sec) 

Warmup complete CPU 0 instructions: 200000002 cycles: 124568704 (Simulation time: 0 hr 4 min 56 sec) 

Heartbeat CPU 0 instructions: 210000000 cycles: 134352161 heartbeat IPC: 1.02213 cumulative IPC: 1.02213 (Simulation time: 0 hr 5 min 13 sec) 
Heartbeat CPU 0 instructions: 220000000 cycles: 143399672 heartbeat IPC: 1.10528 cumulative IPC: 1.06208 (Simulation time: 0 hr 5 min 30 sec) 
Heartbeat CPU 0 instructions: 230000000 cycles: 152858276 heartbeat IPC: 1.05724 cumulative IPC: 1.06046 (Simulation time: 0 hr 5 min 47 sec) 
Heartbeat CPU 0 instructions: 240000000 cycles: 162202211 heartbeat IPC: 1.07021 cumulative IPC: 1.06288 (Simulation time: 0 hr 6 min 5 sec) 
Heartbeat CPU 0 instructions: 250000002 cycles: 171368018 heartbeat IPC: 1.09101 cumulative IPC: 1.06839 (Simulation time: 0 hr 6 min 21 sec) 
Heartbeat CPU 0 instructions: 260000000 cycles: 180338574 heartbeat IPC: 1.11476 cumulative IPC: 1.07585 (Simulation time: 0 hr 6 min 38 sec) 
Heartbeat CPU 0 instructions: 270000000 cycles: 189285182 heartbeat IPC: 1.11774 cumulative IPC: 1.08164 (Simulation time: 0 hr 6 min 54 sec) 
Heartbeat CPU 0 instructions: 280000000 cycles: 198337606 heartbeat IPC: 1.10468 cumulative IPC: 1.08447 (Simulation time: 0 hr 7 min 11 sec) 
Heartbeat CPU 0 instructions: 290000003 cycles: 207661225 heartbeat IPC: 1.07255 cumulative IPC: 1.08313 (Simulation time: 0 hr 7 min 27 sec) 
Heartbeat CPU 0 instructions: 300000000 cycles: 216533246 heartbeat IPC: 1.12714 cumulative IPC: 1.08738 (Simulation time: 0 hr 7 min 44 sec) 
Heartbeat CPU 0 instructions: 310000000 cycles: 225425985 heartbeat IPC: 1.12451 cumulative IPC: 1.09065 (Simulation time: 0 hr 8 min 0 sec) 
Heartbeat CPU 0 instructions: 320000000 cycles: 234406412 heartbeat IPC: 1.11353 cumulative IPC: 1.09252 (Simulation time: 0 hr 8 min 17 sec) 
Heartbeat CPU 0 instructions: 330000001 cycles: 243353533 heartbeat IPC: 1.11768 cumulative IPC: 1.09442 (Simulation time: 0 hr 8 min 33 sec) 
Heartbeat CPU 0 instructions: 340000000 cycles: 252240080 heartbeat IPC: 1.1253 cumulative IPC: 1.09657 (Simulation time: 0 hr 8 min 49 sec) 
Heartbeat CPU 0 instructions: 350000001 cycles: 261102952 heartbeat IPC: 1.1283 cumulative IPC: 1.09863 (Simulation time: 0 hr 9 min 6 sec) 
Heartbeat CPU 0 instructions: 360000000 cycles: 269957995 heartbeat IPC: 1.1293 cumulative IPC: 1.10049 (Simulation time: 0 hr 9 min 22 sec) 
Heartbeat CPU 0 instructions: 370000000 cycles: 278814533 heartbeat IPC: 1.12911 cumulative IPC: 1.10214 (Simulation time: 0 hr 9 min 38 sec) 
Heartbeat CPU 0 instructions: 380000000 cycles: 287662822 heartbeat IPC: 1.13016 cumulative IPC: 1.10366 (Simulation time: 0 hr 9 min 54 sec) 
Heartbeat CPU 0 instructions: 390000003 cycles: 296537477 heartbeat IPC: 1.1268 cumulative IPC: 1.10485 (Simulation time: 0 hr 10 min 10 sec) 
Heartbeat CPU 0 instructions: 400000000 cycles: 305387950 heartbeat IPC: 1.12988 cumulative IPC: 1.10608 (Simulation time: 0 hr 10 min 26 sec) 
Heartbeat CPU 0 instructions: 410000000 cycles: 314240210 heartbeat IPC: 1.12966 cumulative IPC: 1.10718 (Simulation time: 0 hr 10 min 43 sec) 
Heartbeat CPU 0 instructions: 420000000 cycles: 323149627 heartbeat IPC: 1.12241 cumulative IPC: 1.10786 (Simulation time: 0 hr 10 min 59 sec) 
Heartbeat CPU 0 instructions: 430000000 cycles: 332003659 heartbeat IPC: 1.12943 cumulative IPC: 1.10878 (Simulation time: 0 hr 11 min 15 sec) 
Heartbeat CPU 0 instructions: 440000000 cycles: 340852528 heartbeat IPC: 1.13009 cumulative IPC: 1.10965 (Simulation time: 0 hr 11 min 31 sec) 
Heartbeat CPU 0 instructions: 450000000 cycles: 349758281 heartbeat IPC: 1.12287 cumulative IPC: 1.11018 (Simulation time: 0 hr 11 min 48 sec) 
Heartbeat CPU 0 instructions: 460000000 cycles: 358608462 heartbeat IPC: 1.12992 cumulative IPC: 1.11092 (Simulation time: 0 hr 12 min 4 sec) 
Heartbeat CPU 0 instructions: 470000000 cycles: 367472925 heartbeat IPC: 1.1281 cumulative IPC: 1.11155 (Simulation time: 0 hr 12 min 20 sec) 
Heartbeat CPU 0 instructions: 480000000 cycles: 376326356 heartbeat IPC: 1.12951 cumulative IPC: 1.11218 (Simulation time: 0 hr 12 min 36 sec) 
Heartbeat CPU 0 instructions: 490000002 cycles: 385201119 heartbeat IPC: 1.12679 cumulative IPC: 1.11268 (Simulation time: 0 hr 12 min 53 sec) 
Heartbeat CPU 0 instructions: 500000000 cycles: 394052670 heartbeat IPC: 1.12975 cumulative IPC: 1.11324 (Simulation time: 0 hr 13 min 9 sec) 
Heartbeat CPU 0 instructions: 510000001 cycles: 402929777 heartbeat IPC: 1.12649 cumulative IPC: 1.11366 (Simulation time: 0 hr 13 min 25 sec) 
Heartbeat CPU 0 instructions: 520000000 cycles: 411820637 heartbeat IPC: 1.12475 cumulative IPC: 1.114 (Simulation time: 0 hr 13 min 41 sec) 
Heartbeat CPU 0 instructions: 530000003 cycles: 420690078 heartbeat IPC: 1.12747 cumulative IPC: 1.11441 (Simulation time: 0 hr 13 min 58 sec) 
Heartbeat CPU 0 instructions: 540000000 cycles: 429541188 heartbeat IPC: 1.1298 cumulative IPC: 1.11485 (Simulation time: 0 hr 14 min 14 sec) 
Heartbeat CPU 0 instructions: 550000001 cycles: 438415946 heartbeat IPC: 1.12679 cumulative IPC: 1.11519 (Simulation time: 0 hr 14 min 30 sec) 
Heartbeat CPU 0 instructions: 560000000 cycles: 447298082 heartbeat IPC: 1.12586 cumulative IPC: 1.11549 (Simulation time: 0 hr 14 min 46 sec) 
Heartbeat CPU 0 instructions: 570000002 cycles: 456169010 heartbeat IPC: 1.12728 cumulative IPC: 1.1158 (Simulation time: 0 hr 15 min 2 sec) 
Heartbeat CPU 0 instructions: 580000000 cycles: 465041692 heartbeat IPC: 1.12705 cumulative IPC: 1.11609 (Simulation time: 0 hr 15 min 19 sec) 
Heartbeat CPU 0 instructions: 590000000 cycles: 473905818 heartbeat IPC: 1.12814 cumulative IPC: 1.1164 (Simulation time: 0 hr 15 min 35 sec) 
Heartbeat CPU 0 instructions: 600000000 cycles: 482776082 heartbeat IPC: 1.12736 cumulative IPC: 1.11667 (Simulation time: 0 hr 15 min 51 sec) 
Heartbeat CPU 0 instructions: 610000000 cycles: 491642609 heartbeat IPC: 1.12784 cumulative IPC: 1.11694 (Simulation time: 0 hr 16 min 7 sec) 
Heartbeat CPU 0 instructions: 620000000 cycles: 500488309 heartbeat IPC: 1.13049 cumulative IPC: 1.11726 (Simulation time: 0 hr 16 min 23 sec) 
Heartbeat CPU 0 instructions: 630000002 cycles: 509350806 heartbeat IPC: 1.12835 cumulative IPC: 1.11752 (Simulation time: 0 hr 16 min 39 sec) 
Heartbeat CPU 0 instructions: 640000000 cycles: 518212503 heartbeat IPC: 1.12845 cumulative IPC: 1.11776 (Simulation time: 0 hr 16 min 56 sec) 
Heartbeat CPU 0 instructions: 650000000 cycles: 527095792 heartbeat IPC: 1.12571 cumulative IPC: 1.11794 (Simulation time: 0 hr 17 min 12 sec) 
Heartbeat CPU 0 instructions: 660000000 cycles: 535948918 heartbeat IPC: 1.12954 cumulative IPC: 1.11819 (Simulation time: 0 hr 17 min 28 sec) 
Heartbeat CPU 0 instructions: 670000000 cycles: 544816125 heartbeat IPC: 1.12775 cumulative IPC: 1.11839 (Simulation time: 0 hr 17 min 44 sec) 
Heartbeat CPU 0 instructions: 680000000 cycles: 553674585 heartbeat IPC: 1.12886 cumulative IPC: 1.11861 (Simulation time: 0 hr 18 min 0 sec) 
Heartbeat CPU 0 instructions: 690000003 cycles: 562595290 heartbeat IPC: 1.12099 cumulative IPC: 1.11865 (Simulation time: 0 hr 18 min 16 sec) 
Heartbeat CPU 0 instructions: 700000000 cycles: 571452599 heartbeat IPC: 1.12901 cumulative IPC: 1.11886 (Simulation time: 0 hr 18 min 32 sec) 
Heartbeat CPU 0 instructions: 710000002 cycles: 580327277 heartbeat IPC: 1.1268 cumulative IPC: 1.11901 (Simulation time: 0 hr 18 min 49 sec) 
Heartbeat CPU 0 instructions: 720000000 cycles: 589178188 heartbeat IPC: 1.12983 cumulative IPC: 1.11922 (Simulation time: 0 hr 19 min 5 sec) 
Heartbeat CPU 0 instructions: 730000000 cycles: 598032663 heartbeat IPC: 1.12937 cumulative IPC: 1.11941 (Simulation time: 0 hr 19 min 21 sec) 
Heartbeat CPU 0 instructions: 740000000 cycles: 606908957 heartbeat IPC: 1.1266 cumulative IPC: 1.11954 (Simulation time: 0 hr 19 min 37 sec) 
Heartbeat CPU 0 instructions: 750000002 cycles: 615779876 heartbeat IPC: 1.12728 cumulative IPC: 1.11968 (Simulation time: 0 hr 19 min 53 sec) 
Heartbeat CPU 0 instructions: 760000000 cycles: 624649901 heartbeat IPC: 1.12739 cumulative IPC: 1.11982 (Simulation time: 0 hr 20 min 10 sec) 
Heartbeat CPU 0 instructions: 770000001 cycles: 633499255 heartbeat IPC: 1.13003 cumulative IPC: 1.12 (Simulation time: 0 hr 20 min 26 sec) 
Heartbeat CPU 0 instructions: 780000000 cycles: 642421676 heartbeat IPC: 1.12077 cumulative IPC: 1.12001 (Simulation time: 0 hr 20 min 42 sec) 
Heartbeat CPU 0 instructions: 790000000 cycles: 651366892 heartbeat IPC: 1.11792 cumulative IPC: 1.11997 (Simulation time: 0 hr 20 min 58 sec) 
Heartbeat CPU 0 instructions: 800000000 cycles: 660246021 heartbeat IPC: 1.12624 cumulative IPC: 1.12008 (Simulation time: 0 hr 21 min 13 sec) 
Heartbeat CPU 0 instructions: 810000001 cycles: 669720575 heartbeat IPC: 1.05546 cumulative IPC: 1.11895 (Simulation time: 0 hr 21 min 30 sec) 
Heartbeat CPU 0 instructions: 820000000 cycles: 678730835 heartbeat IPC: 1.10985 cumulative IPC: 1.11881 (Simulation time: 0 hr 21 min 46 sec) 
Heartbeat CPU 0 instructions: 830000001 cycles: 687828219 heartbeat IPC: 1.09922 cumulative IPC: 1.11849 (Simulation time: 0 hr 22 min 3 sec) 
Heartbeat CPU 0 instructions: 840000000 cycles: 696909762 heartbeat IPC: 1.10113 cumulative IPC: 1.11821 (Simulation time: 0 hr 22 min 19 sec) 
Heartbeat CPU 0 instructions: 850000000 cycles: 706251405 heartbeat IPC: 1.07048 cumulative IPC: 1.11745 (Simulation time: 0 hr 22 min 36 sec) 
Heartbeat CPU 0 instructions: 860000000 cycles: 716109774 heartbeat IPC: 1.01437 cumulative IPC: 1.11573 (Simulation time: 0 hr 22 min 53 sec) 
Heartbeat CPU 0 instructions: 870000000 cycles: 725184622 heartbeat IPC: 1.10195 cumulative IPC: 1.11552 (Simulation time: 0 hr 23 min 9 sec) 
Heartbeat CPU 0 instructions: 880000000 cycles: 734796320 heartbeat IPC: 1.0404 cumulative IPC: 1.11434 (Simulation time: 0 hr 23 min 26 sec) 
Heartbeat CPU 0 instructions: 890000000 cycles: 743735610 heartbeat IPC: 1.11866 cumulative IPC: 1.1144 (Simulation time: 0 hr 23 min 42 sec) 
Heartbeat CPU 0 instructions: 900000000 cycles: 752628969 heartbeat IPC: 1.12443 cumulative IPC: 1.11454 (Simulation time: 0 hr 23 min 58 sec) 
Heartbeat CPU 0 instructions: 910000002 cycles: 761497446 heartbeat IPC: 1.12759 cumulative IPC: 1.11472 (Simulation time: 0 hr 24 min 14 sec) 
Heartbeat CPU 0 instructions: 920000000 cycles: 770402926 heartbeat IPC: 1.1229 cumulative IPC: 1.11484 (Simulation time: 0 hr 24 min 30 sec) 
Heartbeat CPU 0 instructions: 930000001 cycles: 779379615 heartbeat IPC: 1.114 cumulative IPC: 1.11483 (Simulation time: 0 hr 24 min 46 sec) 
Heartbeat CPU 0 instructions: 940000000 cycles: 789013958 heartbeat IPC: 1.03795 cumulative IPC: 1.11371 (Simulation time: 0 hr 25 min 3 sec) 
Heartbeat CPU 0 instructions: 950000000 cycles: 798136571 heartbeat IPC: 1.09618 cumulative IPC: 1.11347 (Simulation time: 0 hr 25 min 19 sec) 
Heartbeat CPU 0 instructions: 960000000 cycles: 807665990 heartbeat IPC: 1.04938 cumulative IPC: 1.11258 (Simulation time: 0 hr 25 min 36 sec) 
Heartbeat CPU 0 instructions: 970000000 cycles: 817026139 heartbeat IPC: 1.06836 cumulative IPC: 1.11198 (Simulation time: 0 hr 25 min 52 sec) 
Heartbeat CPU 0 instructions: 980000000 cycles: 826334397 heartbeat IPC: 1.07431 cumulative IPC: 1.11148 (Simulation time: 0 hr 26 min 8 sec) 
Heartbeat CPU 0 instructions: 990000001 cycles: 835221942 heartbeat IPC: 1.12517 cumulative IPC: 1.11165 (Simulation time: 0 hr 26 min 24 sec) 
*** Reached end of trace for Core: 0 Repeating trace: ./tracefiles/hmmer_546B.trace.xz
Heartbeat CPU 0 instructions: 1000000000 cycles: 844163701 heartbeat IPC: 1.11835 cumulative IPC: 1.11174 (Simulation time: 0 hr 26 min 40 sec) 
Finished CPU 0 instructions: 800000000 cycles: 719595007 cumulative IPC: 1.11174 (Simulation time: 0 hr 26 min 40 sec) 

CPU 0 Branch Prediction Accuracy: 99.3202% MPKI: 0.259767

ChampSim completed all CPUs

Region of Interest Statistics

CPU 0 cumulative IPC: 1.11174 instructions: 800000000 cycles: 719595007
L1D TOTAL     ACCESS:  333615151  HIT:  329167130  MISS:    4448021
L1D LOAD      ACCESS:  261568945  HIT:  259588425  MISS:    1980520
L1D RFO       ACCESS:   72046206  HIT:   69578705  MISS:    2467501
L1D PREFETCH  ACCESS:          0  HIT:          0  MISS:          0
L1D WRITEBACK ACCESS:          0  HIT:          0  MISS:          0
L1D PREFETCH  REQUESTED:          0  ISSUED:          0  FILLED:          0  USEFUL:          0  USELESS:          0
L1I TOTAL     ACCESS:  211082706  HIT:  211080840  MISS:       1866
L1I LOAD      ACCESS:  211082706  HIT:  211080840  MISS:       1866
L1I RFO       ACCESS:          0  HIT:          0  MISS:          0
L1I PREFETCH  ACCESS:          0  HIT:          0  MISS:          0
L1I WRITEBACK ACCESS:          0  HIT:          0  MISS:          0
L1I PREFETCH  REQUESTED:          0  ISSUED:          0  FILLED:          0  USEFUL:          0  USELESS:          0
L2C TOTAL     ACCESS:    6927460  HIT:    4259453  MISS:    2668007
L2C LOAD      ACCESS:    1981971  HIT:    1764415  MISS:     217556
L2C RFO       ACCESS:    2467502  HIT:      17546  MISS:    2449956
L2C PREFETCH  ACCESS:          0  HIT:          0  MISS:          0
L2C WRITEBACK ACCESS:    2477987  HIT:    2477492  MISS:        495
L2C PREFETCH  REQUESTED:          0  ISSUED:          0  FILLED:          0  USEFUL:          0  USELESS:          0
LLC TOTAL     ACCESS:    5127682  HIT:    4528809  MISS:     598873
LLC LOAD      ACCESS:     217556  HIT:     211699  MISS:       5857
LLC RFO       ACCESS:    2449795  HIT:    2131089  MISS:     318706
LLC PREFETCH  ACCESS:          0  HIT:          0  MISS:          0
LLC WRITEBACK ACCESS:    2460331  HIT:    2186021  MISS:     274310
LLC PREFETCH  REQUESTED:          0  ISSUED:          0  FILLED:          0  USEFUL:          0  USELESS:          0
DTLB TOTAL     ACCESS:  345629410  HIT:  345570367  MISS:      59043
DTLB LOAD      ACCESS:  254472791  HIT:  254452815  MISS:      19976
DTLB RFO       ACCESS:   91156619  HIT:   91117552  MISS:      39067
DTLB PREFETCH  ACCESS:          0  HIT:          0  MISS:          0
DTLB WRITEBACK ACCESS:          0  HIT:          0  MISS:          0
DTLB PREFETCH  REQUESTED:          0  ISSUED:          0  FILLED:          0  USEFUL:          0  USELESS:          0
ITLB TOTAL     ACCESS:  165246774  HIT:  165246298  MISS:        476
ITLB LOAD      ACCESS:  165246774  HIT:  165246298  MISS:        476
ITLB RFO       ACCESS:          0  HIT:          0  MISS:          0
ITLB PREFETCH  ACCESS:          0  HIT:          0  MISS:          0
ITLB WRITEBACK ACCESS:          0  HIT:          0  MISS:          0
ITLB PREFETCH  REQUESTED:          0  ISSUED:          0  FILLED:          0  USEFUL:          0  USELESS:          0
STLB TOTAL     ACCESS:      59519  HIT:      59083  MISS:        436
STLB LOAD      ACCESS:      20452  HIT:      20448  MISS:          4
STLB RFO       ACCESS:      39067  HIT:      38635  MISS:        432
STLB PREFETCH  ACCESS:          0  HIT:          0  MISS:          0
STLB WRITEBACK ACCESS:          0  HIT:          0  MISS:          0
STLB PREFETCH  REQUESTED:          0  ISSUED:          0  FILLED:          0  USEFUL:          0  USELESS:          0
Major fault: 0 Minor fault: 1209

Invalid block evictions: 32768
DBP Decisions: 101
Mockingjay Decisions: 668425
Non Writeback Decisions: 48356

DB Predictions at the end: 
0 3979622
1 62
2 4149
3 4736
4 15225
5 48201
6 19505
7 1167
8 2745
9 34725


DRAM Statistics
 CHANNEL 0
 RQ ROW_BUFFER_HIT:     199177  ROW_BUFFER_MISS:     124704
 DBUS_CONGESTED:     314919
 WQ ROW_BUFFER_HIT:     149816  ROW_BUFFER_MISS:     180759  FULL:          0

 AVG_CONGESTED_CYCLE: 14
