
*** ChampSim Multicore Out-of-Order Simulator ***

Warmup Instructions: 200000000
Simulation Instructions: 800000000
Number of CPUs: 1
LLC sets: 2048
LLC ways: 16
Off-chip DRAM Size: 4096 MB Channels: 1 Width: 64-bit Data Rate: 1600 MT/s

CPU 0 runs ./tracefiles/hmmer_7B.trace.xz
CPU 0 Bimodal branch predictor
Heartbeat CPU 0 instructions: 10000003 cycles: 6234416 heartbeat IPC: 1.604 cumulative IPC: 1.604 (Simulation time: 0 hr 0 min 14 sec) 
Heartbeat CPU 0 instructions: 20000000 cycles: 12486170 heartbeat IPC: 1.59955 cumulative IPC: 1.60177 (Simulation time: 0 hr 0 min 29 sec) 
Heartbeat CPU 0 instructions: 30000001 cycles: 18713276 heartbeat IPC: 1.60588 cumulative IPC: 1.60314 (Simulation time: 0 hr 0 min 43 sec) 
Heartbeat CPU 0 instructions: 40000000 cycles: 24964599 heartbeat IPC: 1.59966 cumulative IPC: 1.60227 (Simulation time: 0 hr 0 min 58 sec) 
Heartbeat CPU 0 instructions: 50000002 cycles: 31205963 heartbeat IPC: 1.60221 cumulative IPC: 1.60226 (Simulation time: 0 hr 1 min 12 sec) 
Heartbeat CPU 0 instructions: 60000000 cycles: 37447264 heartbeat IPC: 1.60223 cumulative IPC: 1.60225 (Simulation time: 0 hr 1 min 26 sec) 
Heartbeat CPU 0 instructions: 70000000 cycles: 43687154 heartbeat IPC: 1.60259 cumulative IPC: 1.6023 (Simulation time: 0 hr 1 min 41 sec) 
Heartbeat CPU 0 instructions: 80000000 cycles: 49932656 heartbeat IPC: 1.60115 cumulative IPC: 1.60216 (Simulation time: 0 hr 1 min 55 sec) 
Heartbeat CPU 0 instructions: 90000000 cycles: 56172556 heartbeat IPC: 1.60259 cumulative IPC: 1.60221 (Simulation time: 0 hr 2 min 10 sec) 
Heartbeat CPU 0 instructions: 100000000 cycles: 62413919 heartbeat IPC: 1.60221 cumulative IPC: 1.60221 (Simulation time: 0 hr 2 min 24 sec) 
Heartbeat CPU 0 instructions: 110000003 cycles: 68656591 heartbeat IPC: 1.60188 cumulative IPC: 1.60218 (Simulation time: 0 hr 2 min 39 sec) 
Heartbeat CPU 0 instructions: 120000000 cycles: 74900643 heartbeat IPC: 1.60152 cumulative IPC: 1.60212 (Simulation time: 0 hr 2 min 53 sec) 
Heartbeat CPU 0 instructions: 130000001 cycles: 81144624 heartbeat IPC: 1.60154 cumulative IPC: 1.60208 (Simulation time: 0 hr 3 min 8 sec) 
Heartbeat CPU 0 instructions: 140000000 cycles: 87380839 heartbeat IPC: 1.60354 cumulative IPC: 1.60218 (Simulation time: 0 hr 3 min 22 sec) 
Heartbeat CPU 0 instructions: 150000002 cycles: 93626058 heartbeat IPC: 1.60123 cumulative IPC: 1.60212 (Simulation time: 0 hr 3 min 36 sec) 
Heartbeat CPU 0 instructions: 160000000 cycles: 99865864 heartbeat IPC: 1.60261 cumulative IPC: 1.60215 (Simulation time: 0 hr 3 min 51 sec) 
Heartbeat CPU 0 instructions: 170000001 cycles: 106111797 heartbeat IPC: 1.60104 cumulative IPC: 1.60208 (Simulation time: 0 hr 4 min 5 sec) 
Heartbeat CPU 0 instructions: 180000000 cycles: 112351942 heartbeat IPC: 1.60253 cumulative IPC: 1.60211 (Simulation time: 0 hr 4 min 20 sec) 
Heartbeat CPU 0 instructions: 190000002 cycles: 118592544 heartbeat IPC: 1.60241 cumulative IPC: 1.60212 (Simulation time: 0 hr 4 min 34 sec) 
Heartbeat CPU 0 instructions: 200000000 cycles: 124838550 heartbeat IPC: 1.60102 cumulative IPC: 1.60207 (Simulation time: 0 hr 4 min 49 sec) 

Warmup complete CPU 0 instructions: 200000001 cycles: 124838564 (Simulation time: 0 hr 4 min 49 sec) 

Heartbeat CPU 0 instructions: 210000000 cycles: 133697581 heartbeat IPC: 1.12879 cumulative IPC: 1.12879 (Simulation time: 0 hr 5 min 5 sec) 
Heartbeat CPU 0 instructions: 220000000 cycles: 142559319 heartbeat IPC: 1.12845 cumulative IPC: 1.12862 (Simulation time: 0 hr 5 min 21 sec) 
Heartbeat CPU 0 instructions: 230000000 cycles: 151422558 heartbeat IPC: 1.12826 cumulative IPC: 1.1285 (Simulation time: 0 hr 5 min 37 sec) 
Heartbeat CPU 0 instructions: 240000000 cycles: 160287187 heartbeat IPC: 1.12808 cumulative IPC: 1.12839 (Simulation time: 0 hr 5 min 52 sec) 
Heartbeat CPU 0 instructions: 250000000 cycles: 169120458 heartbeat IPC: 1.13208 cumulative IPC: 1.12913 (Simulation time: 0 hr 6 min 8 sec) 
Heartbeat CPU 0 instructions: 260000000 cycles: 177953979 heartbeat IPC: 1.13205 cumulative IPC: 1.12962 (Simulation time: 0 hr 6 min 24 sec) 
Heartbeat CPU 0 instructions: 270000000 cycles: 186827764 heartbeat IPC: 1.12691 cumulative IPC: 1.12923 (Simulation time: 0 hr 6 min 40 sec) 
Heartbeat CPU 0 instructions: 280000000 cycles: 195704971 heartbeat IPC: 1.12648 cumulative IPC: 1.12888 (Simulation time: 0 hr 6 min 56 sec) 
Heartbeat CPU 0 instructions: 290000000 cycles: 204581473 heartbeat IPC: 1.12657 cumulative IPC: 1.12863 (Simulation time: 0 hr 7 min 12 sec) 
Heartbeat CPU 0 instructions: 300000000 cycles: 213460457 heartbeat IPC: 1.12626 cumulative IPC: 1.12839 (Simulation time: 0 hr 7 min 28 sec) 
Heartbeat CPU 0 instructions: 310000001 cycles: 222353067 heartbeat IPC: 1.12453 cumulative IPC: 1.12804 (Simulation time: 0 hr 7 min 43 sec) 
Heartbeat CPU 0 instructions: 320000000 cycles: 231233068 heartbeat IPC: 1.12613 cumulative IPC: 1.12788 (Simulation time: 0 hr 7 min 59 sec) 
Heartbeat CPU 0 instructions: 330000002 cycles: 240095226 heartbeat IPC: 1.12839 cumulative IPC: 1.12792 (Simulation time: 0 hr 8 min 15 sec) 
Heartbeat CPU 0 instructions: 340000000 cycles: 248935792 heartbeat IPC: 1.13115 cumulative IPC: 1.12815 (Simulation time: 0 hr 8 min 31 sec) 
Heartbeat CPU 0 instructions: 350000001 cycles: 258278193 heartbeat IPC: 1.07039 cumulative IPC: 1.1241 (Simulation time: 0 hr 8 min 47 sec) 
Heartbeat CPU 0 instructions: 360000000 cycles: 267287739 heartbeat IPC: 1.10993 cumulative IPC: 1.12321 (Simulation time: 0 hr 9 min 3 sec) 
Heartbeat CPU 0 instructions: 370000000 cycles: 276639997 heartbeat IPC: 1.06926 cumulative IPC: 1.11988 (Simulation time: 0 hr 9 min 19 sec) 
Heartbeat CPU 0 instructions: 380000000 cycles: 285657201 heartbeat IPC: 1.10899 cumulative IPC: 1.11927 (Simulation time: 0 hr 9 min 35 sec) 
Heartbeat CPU 0 instructions: 390000001 cycles: 295018728 heartbeat IPC: 1.0682 cumulative IPC: 1.11646 (Simulation time: 0 hr 9 min 51 sec) 
Heartbeat CPU 0 instructions: 400000000 cycles: 304028345 heartbeat IPC: 1.10993 cumulative IPC: 1.11614 (Simulation time: 0 hr 10 min 7 sec) 
Heartbeat CPU 0 instructions: 410000000 cycles: 313205072 heartbeat IPC: 1.08971 cumulative IPC: 1.11485 (Simulation time: 0 hr 10 min 23 sec) 
Heartbeat CPU 0 instructions: 420000000 cycles: 322387810 heartbeat IPC: 1.089 cumulative IPC: 1.11365 (Simulation time: 0 hr 10 min 39 sec) 
Heartbeat CPU 0 instructions: 430000002 cycles: 331253626 heartbeat IPC: 1.12793 cumulative IPC: 1.11426 (Simulation time: 0 hr 10 min 55 sec) 
Heartbeat CPU 0 instructions: 440000000 cycles: 340810984 heartbeat IPC: 1.04631 cumulative IPC: 1.11125 (Simulation time: 0 hr 11 min 11 sec) 
Heartbeat CPU 0 instructions: 450000002 cycles: 349808555 heartbeat IPC: 1.11141 cumulative IPC: 1.11126 (Simulation time: 0 hr 11 min 27 sec) 
Heartbeat CPU 0 instructions: 460000000 cycles: 359213215 heartbeat IPC: 1.0633 cumulative IPC: 1.10933 (Simulation time: 0 hr 11 min 43 sec) 
Heartbeat CPU 0 instructions: 470000001 cycles: 368101866 heartbeat IPC: 1.12503 cumulative IPC: 1.10991 (Simulation time: 0 hr 11 min 59 sec) 
Heartbeat CPU 0 instructions: 480000000 cycles: 376941418 heartbeat IPC: 1.13128 cumulative IPC: 1.11066 (Simulation time: 0 hr 12 min 15 sec) 
Heartbeat CPU 0 instructions: 490000002 cycles: 385800686 heartbeat IPC: 1.12876 cumulative IPC: 1.11127 (Simulation time: 0 hr 12 min 31 sec) 
Heartbeat CPU 0 instructions: 500000000 cycles: 395369811 heartbeat IPC: 1.04503 cumulative IPC: 1.10893 (Simulation time: 0 hr 12 min 47 sec) 
Heartbeat CPU 0 instructions: 510000003 cycles: 404259923 heartbeat IPC: 1.12485 cumulative IPC: 1.10944 (Simulation time: 0 hr 13 min 3 sec) 
Heartbeat CPU 0 instructions: 520000000 cycles: 413736362 heartbeat IPC: 1.05525 cumulative IPC: 1.10766 (Simulation time: 0 hr 13 min 19 sec) 
Heartbeat CPU 0 instructions: 530000003 cycles: 422603594 heartbeat IPC: 1.12775 cumulative IPC: 1.10826 (Simulation time: 0 hr 13 min 35 sec) 
Heartbeat CPU 0 instructions: 540000000 cycles: 431451618 heartbeat IPC: 1.1302 cumulative IPC: 1.10889 (Simulation time: 0 hr 13 min 51 sec) 
Heartbeat CPU 0 instructions: 550000001 cycles: 441015776 heartbeat IPC: 1.04557 cumulative IPC: 1.10697 (Simulation time: 0 hr 14 min 7 sec) 
Heartbeat CPU 0 instructions: 560000000 cycles: 449866302 heartbeat IPC: 1.12988 cumulative IPC: 1.1076 (Simulation time: 0 hr 14 min 22 sec) 
Heartbeat CPU 0 instructions: 570000001 cycles: 459207013 heartbeat IPC: 1.07058 cumulative IPC: 1.10656 (Simulation time: 0 hr 14 min 39 sec) 
Heartbeat CPU 0 instructions: 580000000 cycles: 468255355 heartbeat IPC: 1.10517 cumulative IPC: 1.10653 (Simulation time: 0 hr 14 min 55 sec) 
Heartbeat CPU 0 instructions: 590000000 cycles: 477821557 heartbeat IPC: 1.04535 cumulative IPC: 1.10487 (Simulation time: 0 hr 15 min 11 sec) 
Heartbeat CPU 0 instructions: 600000000 cycles: 486778716 heartbeat IPC: 1.11643 cumulative IPC: 1.10516 (Simulation time: 0 hr 15 min 27 sec) 
Heartbeat CPU 0 instructions: 610000001 cycles: 496199008 heartbeat IPC: 1.06154 cumulative IPC: 1.10405 (Simulation time: 0 hr 15 min 43 sec) 
Heartbeat CPU 0 instructions: 620000000 cycles: 505091316 heartbeat IPC: 1.12457 cumulative IPC: 1.10453 (Simulation time: 0 hr 15 min 59 sec) 
Heartbeat CPU 0 instructions: 630000001 cycles: 513969252 heartbeat IPC: 1.12639 cumulative IPC: 1.10503 (Simulation time: 0 hr 16 min 15 sec) 
Heartbeat CPU 0 instructions: 640000000 cycles: 522809043 heartbeat IPC: 1.13125 cumulative IPC: 1.10561 (Simulation time: 0 hr 16 min 31 sec) 
Heartbeat CPU 0 instructions: 650000000 cycles: 531698895 heartbeat IPC: 1.12488 cumulative IPC: 1.10603 (Simulation time: 0 hr 16 min 47 sec) 
Heartbeat CPU 0 instructions: 660000000 cycles: 540600925 heartbeat IPC: 1.12334 cumulative IPC: 1.1064 (Simulation time: 0 hr 17 min 2 sec) 
Heartbeat CPU 0 instructions: 670000000 cycles: 550039859 heartbeat IPC: 1.05944 cumulative IPC: 1.10536 (Simulation time: 0 hr 17 min 19 sec) 
Heartbeat CPU 0 instructions: 680000000 cycles: 559251888 heartbeat IPC: 1.08554 cumulative IPC: 1.10494 (Simulation time: 0 hr 17 min 35 sec) 
Heartbeat CPU 0 instructions: 690000003 cycles: 568487578 heartbeat IPC: 1.08276 cumulative IPC: 1.10448 (Simulation time: 0 hr 17 min 51 sec) 
Heartbeat CPU 0 instructions: 700000000 cycles: 577360008 heartbeat IPC: 1.12709 cumulative IPC: 1.10492 (Simulation time: 0 hr 18 min 7 sec) 
Heartbeat CPU 0 instructions: 710000001 cycles: 586715132 heartbeat IPC: 1.06893 cumulative IPC: 1.10419 (Simulation time: 0 hr 18 min 23 sec) 
Heartbeat CPU 0 instructions: 720000000 cycles: 595569668 heartbeat IPC: 1.12936 cumulative IPC: 1.10466 (Simulation time: 0 hr 18 min 39 sec) 
Heartbeat CPU 0 instructions: 730000000 cycles: 604436021 heartbeat IPC: 1.12786 cumulative IPC: 1.10509 (Simulation time: 0 hr 18 min 54 sec) 
Heartbeat CPU 0 instructions: 740000000 cycles: 613297248 heartbeat IPC: 1.12851 cumulative IPC: 1.10552 (Simulation time: 0 hr 19 min 10 sec) 
Heartbeat CPU 0 instructions: 750000001 cycles: 622154921 heartbeat IPC: 1.12896 cumulative IPC: 1.10594 (Simulation time: 0 hr 19 min 26 sec) 
Heartbeat CPU 0 instructions: 760000000 cycles: 631013598 heartbeat IPC: 1.12884 cumulative IPC: 1.10634 (Simulation time: 0 hr 19 min 42 sec) 
Heartbeat CPU 0 instructions: 770000003 cycles: 639844279 heartbeat IPC: 1.13242 cumulative IPC: 1.10678 (Simulation time: 0 hr 19 min 58 sec) 
Heartbeat CPU 0 instructions: 780000000 cycles: 648796104 heartbeat IPC: 1.11709 cumulative IPC: 1.10696 (Simulation time: 0 hr 20 min 13 sec) 
Heartbeat CPU 0 instructions: 790000002 cycles: 657681204 heartbeat IPC: 1.12548 cumulative IPC: 1.10727 (Simulation time: 0 hr 20 min 29 sec) 
Heartbeat CPU 0 instructions: 800000000 cycles: 666570258 heartbeat IPC: 1.12498 cumulative IPC: 1.10756 (Simulation time: 0 hr 20 min 45 sec) 
Heartbeat CPU 0 instructions: 810000001 cycles: 675436506 heartbeat IPC: 1.12787 cumulative IPC: 1.10789 (Simulation time: 0 hr 21 min 1 sec) 
Heartbeat CPU 0 instructions: 820000000 cycles: 684321356 heartbeat IPC: 1.12551 cumulative IPC: 1.10817 (Simulation time: 0 hr 21 min 17 sec) 
Heartbeat CPU 0 instructions: 830000002 cycles: 693188304 heartbeat IPC: 1.12778 cumulative IPC: 1.10847 (Simulation time: 0 hr 21 min 32 sec) 
Heartbeat CPU 0 instructions: 840000000 cycles: 702036886 heartbeat IPC: 1.13012 cumulative IPC: 1.1088 (Simulation time: 0 hr 21 min 48 sec) 
Heartbeat CPU 0 instructions: 850000000 cycles: 710874131 heartbeat IPC: 1.13157 cumulative IPC: 1.10915 (Simulation time: 0 hr 22 min 4 sec) 
Heartbeat CPU 0 instructions: 860000000 cycles: 719765786 heartbeat IPC: 1.12465 cumulative IPC: 1.10938 (Simulation time: 0 hr 22 min 20 sec) 
Heartbeat CPU 0 instructions: 870000001 cycles: 728593447 heartbeat IPC: 1.1328 cumulative IPC: 1.10972 (Simulation time: 0 hr 22 min 36 sec) 
Heartbeat CPU 0 instructions: 880000000 cycles: 737508723 heartbeat IPC: 1.12167 cumulative IPC: 1.1099 (Simulation time: 0 hr 22 min 52 sec) 
Heartbeat CPU 0 instructions: 890000001 cycles: 746358054 heartbeat IPC: 1.13003 cumulative IPC: 1.11018 (Simulation time: 0 hr 23 min 8 sec) 
Heartbeat CPU 0 instructions: 900000000 cycles: 755195847 heartbeat IPC: 1.1315 cumulative IPC: 1.11048 (Simulation time: 0 hr 23 min 23 sec) 
Heartbeat CPU 0 instructions: 910000000 cycles: 764061907 heartbeat IPC: 1.1279 cumulative IPC: 1.11072 (Simulation time: 0 hr 23 min 39 sec) 
Heartbeat CPU 0 instructions: 920000000 cycles: 772895077 heartbeat IPC: 1.1321 cumulative IPC: 1.11101 (Simulation time: 0 hr 23 min 55 sec) 
Heartbeat CPU 0 instructions: 930000003 cycles: 781745776 heartbeat IPC: 1.12985 cumulative IPC: 1.11127 (Simulation time: 0 hr 24 min 11 sec) 
Heartbeat CPU 0 instructions: 940000000 cycles: 790603415 heartbeat IPC: 1.12897 cumulative IPC: 1.1115 (Simulation time: 0 hr 24 min 27 sec) 
Heartbeat CPU 0 instructions: 950000000 cycles: 799467711 heartbeat IPC: 1.12812 cumulative IPC: 1.11172 (Simulation time: 0 hr 24 min 43 sec) 
Heartbeat CPU 0 instructions: 960000000 cycles: 808399127 heartbeat IPC: 1.11964 cumulative IPC: 1.11183 (Simulation time: 0 hr 24 min 58 sec) 
Heartbeat CPU 0 instructions: 970000000 cycles: 817899704 heartbeat IPC: 1.05257 cumulative IPC: 1.11101 (Simulation time: 0 hr 25 min 15 sec) 
Heartbeat CPU 0 instructions: 980000000 cycles: 826849369 heartbeat IPC: 1.11736 cumulative IPC: 1.11109 (Simulation time: 0 hr 25 min 30 sec) 
Heartbeat CPU 0 instructions: 990000003 cycles: 835718498 heartbeat IPC: 1.12751 cumulative IPC: 1.1113 (Simulation time: 0 hr 25 min 46 sec) 
*** Reached end of trace for Core: 0 Repeating trace: ./tracefiles/hmmer_7B.trace.xz
Heartbeat CPU 0 instructions: 1000000000 cycles: 844619462 heartbeat IPC: 1.12347 cumulative IPC: 1.11145 (Simulation time: 0 hr 26 min 2 sec) 
Finished CPU 0 instructions: 800000000 cycles: 719780906 cumulative IPC: 1.11145 (Simulation time: 0 hr 26 min 2 sec) 

CPU 0 Branch Prediction Accuracy: 99.3268% MPKI: 0.256896

ChampSim completed all CPUs

Region of Interest Statistics

CPU 0 cumulative IPC: 1.11145 instructions: 800000000 cycles: 719780906
L1D TOTAL     ACCESS:  331211914  HIT:  326752015  MISS:    4459899
L1D LOAD      ACCESS:  259485821  HIT:  257492031  MISS:    1993790
L1D RFO       ACCESS:   71726093  HIT:   69259984  MISS:    2466109
L1D PREFETCH  ACCESS:          0  HIT:          0  MISS:          0
L1D WRITEBACK ACCESS:          0  HIT:          0  MISS:          0
L1D PREFETCH  REQUESTED:          0  ISSUED:          0  FILLED:          0  USEFUL:          0  USELESS:          0
L1I TOTAL     ACCESS:  210807336  HIT:  210805561  MISS:       1775
L1I LOAD      ACCESS:  210807336  HIT:  210805561  MISS:       1775
L1I RFO       ACCESS:          0  HIT:          0  MISS:          0
L1I PREFETCH  ACCESS:          0  HIT:          0  MISS:          0
L1I WRITEBACK ACCESS:          0  HIT:          0  MISS:          0
L1I PREFETCH  REQUESTED:          0  ISSUED:          0  FILLED:          0  USEFUL:          0  USELESS:          0
L2C TOTAL     ACCESS:    6936969  HIT:    4248201  MISS:    2688768
L2C LOAD      ACCESS:    1995158  HIT:    1768343  MISS:     226815
L2C RFO       ACCESS:    2466109  HIT:       4635  MISS:    2461474
L2C PREFETCH  ACCESS:          0  HIT:          0  MISS:          0
L2C WRITEBACK ACCESS:    2475702  HIT:    2475223  MISS:        479
L2C PREFETCH  REQUESTED:          0  ISSUED:          0  FILLED:          0  USEFUL:          0  USELESS:          0
LLC TOTAL     ACCESS:    5158398  HIT:    4390164  MISS:     768234
LLC LOAD      ACCESS:     226815  HIT:     218976  MISS:       7839
LLC RFO       ACCESS:    2461474  HIT:    2061413  MISS:     400061
LLC PREFETCH  ACCESS:          0  HIT:          0  MISS:          0
LLC WRITEBACK ACCESS:    2470109  HIT:    2109775  MISS:     360334
LLC PREFETCH  REQUESTED:          0  ISSUED:          0  FILLED:          0  USEFUL:          0  USELESS:          0
DTLB TOTAL     ACCESS:  345370214  HIT:  345269364  MISS:     100850
DTLB LOAD      ACCESS:  254350306  HIT:  254290650  MISS:      59656
DTLB RFO       ACCESS:   91019908  HIT:   90978714  MISS:      41194
DTLB PREFETCH  ACCESS:          0  HIT:          0  MISS:          0
DTLB WRITEBACK ACCESS:          0  HIT:          0  MISS:          0
DTLB PREFETCH  REQUESTED:          0  ISSUED:          0  FILLED:          0  USEFUL:          0  USELESS:          0
ITLB TOTAL     ACCESS:  164978762  HIT:  164978346  MISS:        416
ITLB LOAD      ACCESS:  164978762  HIT:  164978346  MISS:        416
ITLB RFO       ACCESS:          0  HIT:          0  MISS:          0
ITLB PREFETCH  ACCESS:          0  HIT:          0  MISS:          0
ITLB WRITEBACK ACCESS:          0  HIT:          0  MISS:          0
ITLB PREFETCH  REQUESTED:          0  ISSUED:          0  FILLED:          0  USEFUL:          0  USELESS:          0
STLB TOTAL     ACCESS:     101266  HIT:     101266  MISS:          0
STLB LOAD      ACCESS:      60072  HIT:      60072  MISS:          0
STLB RFO       ACCESS:      41194  HIT:      41194  MISS:          0
STLB PREFETCH  ACCESS:          0  HIT:          0  MISS:          0
STLB WRITEBACK ACCESS:          0  HIT:          0  MISS:          0
STLB PREFETCH  REQUESTED:          0  ISSUED:          0  FILLED:          0  USEFUL:          0  USELESS:          0
Major fault: 0 Minor fault: 1183
hello world!

DRAM Statistics
 CHANNEL 0
 RQ ROW_BUFFER_HIT:     242652  ROW_BUFFER_MISS:     164680
 DBUS_CONGESTED:     401153
 WQ ROW_BUFFER_HIT:     200126  ROW_BUFFER_MISS:     204376  FULL:          0

 AVG_CONGESTED_CYCLE: 14
