
*** ChampSim Multicore Out-of-Order Simulator ***

Warmup Instructions: 200000000
Simulation Instructions: 800000000
Number of CPUs: 1
LLC sets: 2048
LLC ways: 16
Off-chip DRAM Size: 4096 MB Channels: 1 Width: 64-bit Data Rate: 1600 MT/s

CPU 0 runs ./tracefiles/lbm_564B.trace.xz
CPU 0 Bimodal branch predictor
Heartbeat CPU 0 instructions: 10000002 cycles: 3914970 heartbeat IPC: 2.5543 cumulative IPC: 2.5543 (Simulation time: 0 hr 0 min 10 sec) 
Heartbeat CPU 0 instructions: 20000000 cycles: 7829809 heartbeat IPC: 2.55438 cumulative IPC: 2.55434 (Simulation time: 0 hr 0 min 20 sec) 
Heartbeat CPU 0 instructions: 30000000 cycles: 12585383 heartbeat IPC: 2.1028 cumulative IPC: 2.38372 (Simulation time: 0 hr 0 min 32 sec) 
Heartbeat CPU 0 instructions: 40000000 cycles: 16498152 heartbeat IPC: 2.55573 cumulative IPC: 2.42451 (Simulation time: 0 hr 0 min 42 sec) 
Heartbeat CPU 0 instructions: 50000002 cycles: 20410955 heartbeat IPC: 2.55571 cumulative IPC: 2.44967 (Simulation time: 0 hr 0 min 52 sec) 
Heartbeat CPU 0 instructions: 60000000 cycles: 24330101 heartbeat IPC: 2.55158 cumulative IPC: 2.46608 (Simulation time: 0 hr 1 min 2 sec) 
Heartbeat CPU 0 instructions: 70000003 cycles: 28275063 heartbeat IPC: 2.53488 cumulative IPC: 2.47568 (Simulation time: 0 hr 1 min 12 sec) 
Heartbeat CPU 0 instructions: 80000000 cycles: 32261600 heartbeat IPC: 2.50844 cumulative IPC: 2.47973 (Simulation time: 0 hr 1 min 23 sec) 
Heartbeat CPU 0 instructions: 90000001 cycles: 36257445 heartbeat IPC: 2.5026 cumulative IPC: 2.48225 (Simulation time: 0 hr 1 min 33 sec) 
Heartbeat CPU 0 instructions: 100000000 cycles: 40262310 heartbeat IPC: 2.49696 cumulative IPC: 2.48371 (Simulation time: 0 hr 1 min 43 sec) 
Heartbeat CPU 0 instructions: 110000001 cycles: 44306348 heartbeat IPC: 2.47278 cumulative IPC: 2.48271 (Simulation time: 0 hr 1 min 53 sec) 
Heartbeat CPU 0 instructions: 120000000 cycles: 48335478 heartbeat IPC: 2.48193 cumulative IPC: 2.48265 (Simulation time: 0 hr 2 min 4 sec) 
Heartbeat CPU 0 instructions: 130000002 cycles: 52360374 heartbeat IPC: 2.48454 cumulative IPC: 2.48279 (Simulation time: 0 hr 2 min 14 sec) 
Heartbeat CPU 0 instructions: 140000000 cycles: 56405229 heartbeat IPC: 2.47228 cumulative IPC: 2.48204 (Simulation time: 0 hr 2 min 25 sec) 
Heartbeat CPU 0 instructions: 150000002 cycles: 60405429 heartbeat IPC: 2.49988 cumulative IPC: 2.48322 (Simulation time: 0 hr 2 min 35 sec) 
Heartbeat CPU 0 instructions: 160000000 cycles: 64396383 heartbeat IPC: 2.50567 cumulative IPC: 2.48461 (Simulation time: 0 hr 2 min 45 sec) 
Heartbeat CPU 0 instructions: 170000003 cycles: 68366948 heartbeat IPC: 2.51853 cumulative IPC: 2.48658 (Simulation time: 0 hr 2 min 55 sec) 
Heartbeat CPU 0 instructions: 180000000 cycles: 72311510 heartbeat IPC: 2.53514 cumulative IPC: 2.48923 (Simulation time: 0 hr 3 min 6 sec) 
Heartbeat CPU 0 instructions: 190000002 cycles: 76227657 heartbeat IPC: 2.55353 cumulative IPC: 2.49253 (Simulation time: 0 hr 3 min 16 sec) 
Heartbeat CPU 0 instructions: 200000000 cycles: 80140409 heartbeat IPC: 2.55575 cumulative IPC: 2.49562 (Simulation time: 0 hr 3 min 26 sec) 

Warmup complete CPU 0 instructions: 200000003 cycles: 80140410 (Simulation time: 0 hr 3 min 26 sec) 

Heartbeat CPU 0 instructions: 210000002 cycles: 96818917 heartbeat IPC: 0.599574 cumulative IPC: 0.599574 (Simulation time: 0 hr 3 min 41 sec) 
Heartbeat CPU 0 instructions: 220000000 cycles: 113201402 heartbeat IPC: 0.610408 cumulative IPC: 0.604942 (Simulation time: 0 hr 3 min 56 sec) 
Heartbeat CPU 0 instructions: 230000003 cycles: 130286060 heartbeat IPC: 0.585321 cumulative IPC: 0.598257 (Simulation time: 0 hr 4 min 11 sec) 
Heartbeat CPU 0 instructions: 240000000 cycles: 147341305 heartbeat IPC: 0.58633 cumulative IPC: 0.59523 (Simulation time: 0 hr 4 min 26 sec) 
Heartbeat CPU 0 instructions: 250000001 cycles: 163994798 heartbeat IPC: 0.600475 cumulative IPC: 0.596272 (Simulation time: 0 hr 4 min 42 sec) 
Heartbeat CPU 0 instructions: 260000000 cycles: 180459749 heartbeat IPC: 0.607351 cumulative IPC: 0.59809 (Simulation time: 0 hr 4 min 57 sec) 
Heartbeat CPU 0 instructions: 270000001 cycles: 197244149 heartbeat IPC: 0.595791 cumulative IPC: 0.597761 (Simulation time: 0 hr 5 min 12 sec) 
Heartbeat CPU 0 instructions: 280000000 cycles: 213724425 heartbeat IPC: 0.606786 cumulative IPC: 0.598874 (Simulation time: 0 hr 5 min 27 sec) 
Heartbeat CPU 0 instructions: 290000000 cycles: 230966436 heartbeat IPC: 0.579979 cumulative IPC: 0.596714 (Simulation time: 0 hr 5 min 42 sec) 
Heartbeat CPU 0 instructions: 300000000 cycles: 247939863 heartbeat IPC: 0.589156 cumulative IPC: 0.595949 (Simulation time: 0 hr 5 min 57 sec) 
Heartbeat CPU 0 instructions: 310000001 cycles: 264449523 heartbeat IPC: 0.605706 cumulative IPC: 0.596823 (Simulation time: 0 hr 6 min 12 sec) 
Heartbeat CPU 0 instructions: 320000000 cycles: 281011342 heartbeat IPC: 0.603798 cumulative IPC: 0.597399 (Simulation time: 0 hr 6 min 27 sec) 
Heartbeat CPU 0 instructions: 330000003 cycles: 297311815 heartbeat IPC: 0.613479 cumulative IPC: 0.598606 (Simulation time: 0 hr 6 min 42 sec) 
Heartbeat CPU 0 instructions: 340000000 cycles: 313734670 heartbeat IPC: 0.608907 cumulative IPC: 0.59933 (Simulation time: 0 hr 6 min 57 sec) 
Heartbeat CPU 0 instructions: 350000000 cycles: 330426156 heartbeat IPC: 0.599108 cumulative IPC: 0.599315 (Simulation time: 0 hr 7 min 12 sec) 
Heartbeat CPU 0 instructions: 360000000 cycles: 347340035 heartbeat IPC: 0.59123 cumulative IPC: 0.598803 (Simulation time: 0 hr 7 min 28 sec) 
Heartbeat CPU 0 instructions: 370000000 cycles: 364583380 heartbeat IPC: 0.579934 cumulative IPC: 0.597659 (Simulation time: 0 hr 7 min 43 sec) 
Heartbeat CPU 0 instructions: 380000000 cycles: 381755808 heartbeat IPC: 0.582329 cumulative IPC: 0.596786 (Simulation time: 0 hr 7 min 58 sec) 
Heartbeat CPU 0 instructions: 390000002 cycles: 398714506 heartbeat IPC: 0.589668 cumulative IPC: 0.596408 (Simulation time: 0 hr 8 min 13 sec) 
Heartbeat CPU 0 instructions: 400000000 cycles: 415016149 heartbeat IPC: 0.613435 cumulative IPC: 0.597236 (Simulation time: 0 hr 8 min 28 sec) 
Heartbeat CPU 0 instructions: 410000001 cycles: 431247240 heartbeat IPC: 0.616102 cumulative IPC: 0.598109 (Simulation time: 0 hr 8 min 43 sec) 
Heartbeat CPU 0 instructions: 420000000 cycles: 448448812 heartbeat IPC: 0.581342 cumulative IPC: 0.597326 (Simulation time: 0 hr 8 min 59 sec) 
Heartbeat CPU 0 instructions: 430000002 cycles: 464492875 heartbeat IPC: 0.623284 cumulative IPC: 0.598409 (Simulation time: 0 hr 9 min 13 sec) 
Heartbeat CPU 0 instructions: 440000000 cycles: 480935265 heartbeat IPC: 0.608184 cumulative IPC: 0.59881 (Simulation time: 0 hr 9 min 29 sec) 
Heartbeat CPU 0 instructions: 450000000 cycles: 503022403 heartbeat IPC: 0.452752 cumulative IPC: 0.591181 (Simulation time: 0 hr 9 min 47 sec) 
Heartbeat CPU 0 instructions: 460000000 cycles: 521174753 heartbeat IPC: 0.550893 cumulative IPC: 0.589523 (Simulation time: 0 hr 10 min 3 sec) 
Heartbeat CPU 0 instructions: 470000002 cycles: 539465639 heartbeat IPC: 0.546721 cumulative IPC: 0.587819 (Simulation time: 0 hr 10 min 19 sec) 
Heartbeat CPU 0 instructions: 480000000 cycles: 557805147 heartbeat IPC: 0.545271 cumulative IPC: 0.586185 (Simulation time: 0 hr 10 min 36 sec) 
Heartbeat CPU 0 instructions: 490000000 cycles: 576027881 heartbeat IPC: 0.548765 cumulative IPC: 0.58481 (Simulation time: 0 hr 10 min 52 sec) 
Heartbeat CPU 0 instructions: 500000000 cycles: 594108784 heartbeat IPC: 0.55307 cumulative IPC: 0.583694 (Simulation time: 0 hr 11 min 8 sec) 
Heartbeat CPU 0 instructions: 510000000 cycles: 612173636 heartbeat IPC: 0.553561 cumulative IPC: 0.58267 (Simulation time: 0 hr 11 min 24 sec) 
Heartbeat CPU 0 instructions: 520000000 cycles: 630241285 heartbeat IPC: 0.553475 cumulative IPC: 0.581711 (Simulation time: 0 hr 11 min 40 sec) 
Heartbeat CPU 0 instructions: 530000002 cycles: 648302355 heartbeat IPC: 0.553677 cumulative IPC: 0.58082 (Simulation time: 0 hr 11 min 56 sec) 
Heartbeat CPU 0 instructions: 540000000 cycles: 666371514 heartbeat IPC: 0.553429 cumulative IPC: 0.579976 (Simulation time: 0 hr 12 min 12 sec) 
Heartbeat CPU 0 instructions: 550000002 cycles: 684441047 heartbeat IPC: 0.553418 cumulative IPC: 0.579182 (Simulation time: 0 hr 12 min 28 sec) 
Heartbeat CPU 0 instructions: 560000000 cycles: 702508848 heartbeat IPC: 0.553471 cumulative IPC: 0.578435 (Simulation time: 0 hr 12 min 44 sec) 
Heartbeat CPU 0 instructions: 570000001 cycles: 720650525 heartbeat IPC: 0.551217 cumulative IPC: 0.577665 (Simulation time: 0 hr 13 min 1 sec) 
Heartbeat CPU 0 instructions: 580000000 cycles: 743280695 heartbeat IPC: 0.441888 cumulative IPC: 0.573031 (Simulation time: 0 hr 13 min 19 sec) 
Heartbeat CPU 0 instructions: 590000003 cycles: 759998113 heartbeat IPC: 0.598179 cumulative IPC: 0.573649 (Simulation time: 0 hr 13 min 34 sec) 
Heartbeat CPU 0 instructions: 600000000 cycles: 775633690 heartbeat IPC: 0.639567 cumulative IPC: 0.575131 (Simulation time: 0 hr 13 min 49 sec) 
Heartbeat CPU 0 instructions: 610000001 cycles: 791997247 heartbeat IPC: 0.611114 cumulative IPC: 0.575958 (Simulation time: 0 hr 14 min 4 sec) 
Heartbeat CPU 0 instructions: 620000000 cycles: 809287228 heartbeat IPC: 0.57837 cumulative IPC: 0.576016 (Simulation time: 0 hr 14 min 19 sec) 
Heartbeat CPU 0 instructions: 630000000 cycles: 826869159 heartbeat IPC: 0.568766 cumulative IPC: 0.575845 (Simulation time: 0 hr 14 min 35 sec) 
Heartbeat CPU 0 instructions: 640000000 cycles: 844025736 heartbeat IPC: 0.582867 cumulative IPC: 0.576003 (Simulation time: 0 hr 14 min 51 sec) 
Heartbeat CPU 0 instructions: 650000000 cycles: 860656982 heartbeat IPC: 0.601278 cumulative IPC: 0.576541 (Simulation time: 0 hr 15 min 6 sec) 
Heartbeat CPU 0 instructions: 660000000 cycles: 878020706 heartbeat IPC: 0.575913 cumulative IPC: 0.576528 (Simulation time: 0 hr 15 min 21 sec) 
Heartbeat CPU 0 instructions: 670000000 cycles: 896251021 heartbeat IPC: 0.548537 cumulative IPC: 0.575902 (Simulation time: 0 hr 15 min 37 sec) 
Heartbeat CPU 0 instructions: 680000000 cycles: 913531256 heartbeat IPC: 0.578696 cumulative IPC: 0.57596 (Simulation time: 0 hr 15 min 53 sec) 
Heartbeat CPU 0 instructions: 690000002 cycles: 930787831 heartbeat IPC: 0.579489 cumulative IPC: 0.576032 (Simulation time: 0 hr 16 min 8 sec) 
Heartbeat CPU 0 instructions: 700000000 cycles: 947393378 heartbeat IPC: 0.602208 cumulative IPC: 0.576533 (Simulation time: 0 hr 16 min 24 sec) 
Heartbeat CPU 0 instructions: 710000001 cycles: 964852369 heartbeat IPC: 0.572771 cumulative IPC: 0.576459 (Simulation time: 0 hr 16 min 39 sec) 
Heartbeat CPU 0 instructions: 720000000 cycles: 981250909 heartbeat IPC: 0.60981 cumulative IPC: 0.577066 (Simulation time: 0 hr 16 min 54 sec) 
Heartbeat CPU 0 instructions: 730000000 cycles: 997995453 heartbeat IPC: 0.597209 cumulative IPC: 0.577433 (Simulation time: 0 hr 17 min 9 sec) 
Heartbeat CPU 0 instructions: 740000000 cycles: 1014327102 heartbeat IPC: 0.612308 cumulative IPC: 0.578043 (Simulation time: 0 hr 17 min 24 sec) 
Heartbeat CPU 0 instructions: 750000001 cycles: 1030191292 heartbeat IPC: 0.630351 cumulative IPC: 0.578916 (Simulation time: 0 hr 17 min 39 sec) 
Heartbeat CPU 0 instructions: 760000000 cycles: 1046372016 heartbeat IPC: 0.618019 cumulative IPC: 0.579571 (Simulation time: 0 hr 17 min 53 sec) 
Heartbeat CPU 0 instructions: 770000001 cycles: 1062469172 heartbeat IPC: 0.621228 cumulative IPC: 0.580254 (Simulation time: 0 hr 18 min 8 sec) 
Heartbeat CPU 0 instructions: 780000000 cycles: 1078363520 heartbeat IPC: 0.629154 cumulative IPC: 0.581032 (Simulation time: 0 hr 18 min 23 sec) 
Heartbeat CPU 0 instructions: 790000000 cycles: 1093973631 heartbeat IPC: 0.64061 cumulative IPC: 0.58195 (Simulation time: 0 hr 18 min 38 sec) 
Heartbeat CPU 0 instructions: 800000000 cycles: 1109970273 heartbeat IPC: 0.625131 cumulative IPC: 0.582621 (Simulation time: 0 hr 18 min 52 sec) 
Heartbeat CPU 0 instructions: 810000000 cycles: 1126136671 heartbeat IPC: 0.618567 cumulative IPC: 0.583176 (Simulation time: 0 hr 19 min 7 sec) 
Heartbeat CPU 0 instructions: 820000000 cycles: 1142108034 heartbeat IPC: 0.626121 cumulative IPC: 0.583822 (Simulation time: 0 hr 19 min 22 sec) 
Heartbeat CPU 0 instructions: 830000001 cycles: 1157967372 heartbeat IPC: 0.630543 cumulative IPC: 0.584509 (Simulation time: 0 hr 19 min 37 sec) 
Heartbeat CPU 0 instructions: 840000000 cycles: 1173455402 heartbeat IPC: 0.64566 cumulative IPC: 0.585376 (Simulation time: 0 hr 19 min 52 sec) 
Heartbeat CPU 0 instructions: 850000000 cycles: 1189808322 heartbeat IPC: 0.611512 cumulative IPC: 0.585761 (Simulation time: 0 hr 20 min 7 sec) 
Heartbeat CPU 0 instructions: 860000000 cycles: 1205578158 heartbeat IPC: 0.634122 cumulative IPC: 0.586438 (Simulation time: 0 hr 20 min 22 sec) 
Heartbeat CPU 0 instructions: 870000000 cycles: 1221330277 heartbeat IPC: 0.634835 cumulative IPC: 0.587107 (Simulation time: 0 hr 20 min 36 sec) 
Heartbeat CPU 0 instructions: 880000000 cycles: 1236727083 heartbeat IPC: 0.649485 cumulative IPC: 0.587937 (Simulation time: 0 hr 20 min 51 sec) 
Heartbeat CPU 0 instructions: 890000000 cycles: 1252771437 heartbeat IPC: 0.623272 cumulative IPC: 0.58842 (Simulation time: 0 hr 21 min 6 sec) 
Heartbeat CPU 0 instructions: 900000000 cycles: 1268508451 heartbeat IPC: 0.635445 cumulative IPC: 0.589043 (Simulation time: 0 hr 21 min 21 sec) 
Heartbeat CPU 0 instructions: 910000003 cycles: 1285469557 heartbeat IPC: 0.589584 cumulative IPC: 0.589051 (Simulation time: 0 hr 21 min 36 sec) 
Heartbeat CPU 0 instructions: 920000000 cycles: 1302019058 heartbeat IPC: 0.604248 cumulative IPC: 0.589257 (Simulation time: 0 hr 21 min 53 sec) 
Heartbeat CPU 0 instructions: 930000000 cycles: 1317816582 heartbeat IPC: 0.633011 cumulative IPC: 0.589815 (Simulation time: 0 hr 22 min 11 sec) 
Heartbeat CPU 0 instructions: 940000000 cycles: 1334112413 heartbeat IPC: 0.613654 cumulative IPC: 0.590125 (Simulation time: 0 hr 22 min 26 sec) 
Heartbeat CPU 0 instructions: 950000000 cycles: 1350881936 heartbeat IPC: 0.59632 cumulative IPC: 0.590207 (Simulation time: 0 hr 22 min 42 sec) 
Heartbeat CPU 0 instructions: 960000000 cycles: 1366560498 heartbeat IPC: 0.637814 cumulative IPC: 0.590787 (Simulation time: 0 hr 22 min 57 sec) 
Heartbeat CPU 0 instructions: 970000001 cycles: 1382336006 heartbeat IPC: 0.633894 cumulative IPC: 0.591309 (Simulation time: 0 hr 23 min 13 sec) 
Heartbeat CPU 0 instructions: 980000000 cycles: 1399066098 heartbeat IPC: 0.597725 cumulative IPC: 0.59139 (Simulation time: 0 hr 23 min 28 sec) 
Heartbeat CPU 0 instructions: 990000002 cycles: 1423680686 heartbeat IPC: 0.406263 cumulative IPC: 0.587999 (Simulation time: 0 hr 23 min 49 sec) 
*** Reached end of trace for Core: 0 Repeating trace: ./tracefiles/lbm_564B.trace.xz
Heartbeat CPU 0 instructions: 1000000000 cycles: 1443537907 heartbeat IPC: 0.503595 cumulative IPC: 0.586769 (Simulation time: 0 hr 24 min 6 sec) 
Finished CPU 0 instructions: 800000001 cycles: 1363397844 cumulative IPC: 0.586769 (Simulation time: 0 hr 24 min 6 sec) 

CPU 0 Branch Prediction Accuracy: 99.2111% MPKI: 0.13952

ChampSim completed all CPUs

Region of Interest Statistics

CPU 0 cumulative IPC: 0.586769 instructions: 800000001 cycles: 1363397844
L1D TOTAL     ACCESS:  138662978  HIT:  101217487  MISS:   37445491
L1D LOAD      ACCESS:   57323051  HIT:   48889411  MISS:    8433640
L1D RFO       ACCESS:   81339927  HIT:   52328076  MISS:   29011851
L1D PREFETCH  ACCESS:          0  HIT:          0  MISS:          0
L1D WRITEBACK ACCESS:          0  HIT:          0  MISS:          0
L1D PREFETCH  REQUESTED:          0  ISSUED:          0  FILLED:          0  USEFUL:          0  USELESS:          0
L1I TOTAL     ACCESS:  198362897  HIT:  198362643  MISS:        254
L1I LOAD      ACCESS:  198362897  HIT:  198362643  MISS:        254
L1I RFO       ACCESS:          0  HIT:          0  MISS:          0
L1I PREFETCH  ACCESS:          0  HIT:          0  MISS:          0
L1I WRITEBACK ACCESS:          0  HIT:          0  MISS:          0
L1I PREFETCH  REQUESTED:          0  ISSUED:          0  FILLED:          0  USEFUL:          0  USELESS:          0
L2C TOTAL     ACCESS:   66457603  HIT:   42288730  MISS:   24168873
L2C LOAD      ACCESS:    8433894  HIT:       2683  MISS:    8431211
L2C RFO       ACCESS:   29011846  HIT:   13275010  MISS:   15736836
L2C PREFETCH  ACCESS:          0  HIT:          0  MISS:          0
L2C WRITEBACK ACCESS:   29011863  HIT:   29011037  MISS:        826
L2C PREFETCH  REQUESTED:          0  ISSUED:          0  FILLED:          0  USEFUL:          0  USELESS:          0
LLC TOTAL     ACCESS:   39905205  HIT:   14404479  MISS:   25500726
LLC LOAD      ACCESS:    8431211  HIT:       8375  MISS:    8422836
LLC RFO       ACCESS:   15736761  HIT:    5552510  MISS:   10184251
LLC PREFETCH  ACCESS:          0  HIT:          0  MISS:          0
LLC WRITEBACK ACCESS:   15737233  HIT:    8843594  MISS:    6893639
LLC PREFETCH  REQUESTED:          0  ISSUED:          0  FILLED:          0  USEFUL:          0  USELESS:          0
DTLB TOTAL     ACCESS:  130046431  HIT:  129671551  MISS:     374880
DTLB LOAD      ACCESS:   69883129  HIT:   69751252  MISS:     131877
DTLB RFO       ACCESS:   60163302  HIT:   59920299  MISS:     243003
DTLB PREFETCH  ACCESS:          0  HIT:          0  MISS:          0
DTLB WRITEBACK ACCESS:          0  HIT:          0  MISS:          0
DTLB PREFETCH  REQUESTED:          0  ISSUED:          0  FILLED:          0  USEFUL:          0  USELESS:          0
ITLB TOTAL     ACCESS:  161624744  HIT:  161624722  MISS:         22
ITLB LOAD      ACCESS:  161624744  HIT:  161624722  MISS:         22
ITLB RFO       ACCESS:          0  HIT:          0  MISS:          0
ITLB PREFETCH  ACCESS:          0  HIT:          0  MISS:          0
ITLB WRITEBACK ACCESS:          0  HIT:          0  MISS:          0
ITLB PREFETCH  REQUESTED:          0  ISSUED:          0  FILLED:          0  USEFUL:          0  USELESS:          0
STLB TOTAL     ACCESS:     374902  HIT:         10  MISS:     374892
STLB LOAD      ACCESS:     131899  HIT:          0  MISS:     131899
STLB RFO       ACCESS:     243003  HIT:         10  MISS:     242993
STLB PREFETCH  ACCESS:          0  HIT:          0  MISS:          0
STLB WRITEBACK ACCESS:          0  HIT:          0  MISS:          0
STLB PREFETCH  REQUESTED:          0  ISSUED:          0  FILLED:          0  USEFUL:          0  USELESS:          0
Major fault: 0 Minor fault: 103185

Invalid block evictions: 32768
DBP Decisions: 1276564
Mockingjay Decisions: 18646213
Non Writeback Decisions: 12854816

DB Predictions at the end: 
0 45804502
1 31782
2 33
3 3513991
6 2099175
9 12525624


DRAM Statistics
 CHANNEL 0
 RQ ROW_BUFFER_HIT:    9012533  ROW_BUFFER_MISS:    9593263
 DBUS_CONGESTED:   20868353
 WQ ROW_BUFFER_HIT:    2907912  ROW_BUFFER_MISS:    8632561  FULL:          0

 AVG_CONGESTED_CYCLE: 13
