
*** ChampSim Multicore Out-of-Order Simulator ***

Warmup Instructions: 200000000
Simulation Instructions: 500000000
Number of CPUs: 1
LLC sets: 2048
LLC ways: 16
Off-chip DRAM Size: 4096 MB Channels: 1 Width: 64-bit Data Rate: 1600 MT/s

CPU 0 runs ./tracefiles/bwaves_1609B.trace.xz
CPU 0 Bimodal branch predictor
Heartbeat CPU 0 instructions: 10000001 cycles: 6403083 heartbeat IPC: 1.56175 cumulative IPC: 1.56175 (Simulation time: 0 hr 0 min 15 sec) 
Heartbeat CPU 0 instructions: 20000000 cycles: 12806573 heartbeat IPC: 1.56165 cumulative IPC: 1.5617 (Simulation time: 0 hr 0 min 30 sec) 
Heartbeat CPU 0 instructions: 30000003 cycles: 19210099 heartbeat IPC: 1.56164 cumulative IPC: 1.56168 (Simulation time: 0 hr 0 min 45 sec) 
Heartbeat CPU 0 instructions: 40000000 cycles: 25613693 heartbeat IPC: 1.56162 cumulative IPC: 1.56166 (Simulation time: 0 hr 0 min 59 sec) 
Heartbeat CPU 0 instructions: 50000000 cycles: 32017493 heartbeat IPC: 1.56157 cumulative IPC: 1.56165 (Simulation time: 0 hr 1 min 13 sec) 
Heartbeat CPU 0 instructions: 60000000 cycles: 38421626 heartbeat IPC: 1.56149 cumulative IPC: 1.56162 (Simulation time: 0 hr 1 min 27 sec) 
Heartbeat CPU 0 instructions: 70000002 cycles: 44825661 heartbeat IPC: 1.56152 cumulative IPC: 1.56161 (Simulation time: 0 hr 1 min 41 sec) 
Heartbeat CPU 0 instructions: 80000000 cycles: 51229375 heartbeat IPC: 1.56159 cumulative IPC: 1.5616 (Simulation time: 0 hr 1 min 55 sec) 
Heartbeat CPU 0 instructions: 90000003 cycles: 57632998 heartbeat IPC: 1.56162 cumulative IPC: 1.56161 (Simulation time: 0 hr 2 min 9 sec) 
Heartbeat CPU 0 instructions: 100000000 cycles: 64036832 heartbeat IPC: 1.56156 cumulative IPC: 1.5616 (Simulation time: 0 hr 2 min 23 sec) 
Heartbeat CPU 0 instructions: 110000002 cycles: 70440753 heartbeat IPC: 1.56154 cumulative IPC: 1.5616 (Simulation time: 0 hr 2 min 38 sec) 
Heartbeat CPU 0 instructions: 120000000 cycles: 76844696 heartbeat IPC: 1.56154 cumulative IPC: 1.56159 (Simulation time: 0 hr 2 min 55 sec) 
Heartbeat CPU 0 instructions: 130000000 cycles: 83248663 heartbeat IPC: 1.56153 cumulative IPC: 1.56159 (Simulation time: 0 hr 3 min 12 sec) 
Heartbeat CPU 0 instructions: 140000000 cycles: 89652346 heartbeat IPC: 1.5616 cumulative IPC: 1.56159 (Simulation time: 0 hr 3 min 27 sec) 
Heartbeat CPU 0 instructions: 150000003 cycles: 96055927 heartbeat IPC: 1.56163 cumulative IPC: 1.56159 (Simulation time: 0 hr 3 min 41 sec) 
Heartbeat CPU 0 instructions: 160000000 cycles: 102459445 heartbeat IPC: 1.56164 cumulative IPC: 1.56159 (Simulation time: 0 hr 3 min 56 sec) 
Heartbeat CPU 0 instructions: 170000001 cycles: 108863071 heartbeat IPC: 1.56162 cumulative IPC: 1.56159 (Simulation time: 0 hr 4 min 10 sec) 
Heartbeat CPU 0 instructions: 180000000 cycles: 115266852 heartbeat IPC: 1.56158 cumulative IPC: 1.56159 (Simulation time: 0 hr 4 min 24 sec) 
Heartbeat CPU 0 instructions: 190000003 cycles: 121670536 heartbeat IPC: 1.5616 cumulative IPC: 1.56159 (Simulation time: 0 hr 4 min 38 sec) 
Heartbeat CPU 0 instructions: 200000000 cycles: 128074108 heartbeat IPC: 1.56163 cumulative IPC: 1.5616 (Simulation time: 0 hr 4 min 53 sec) 

Warmup complete CPU 0 instructions: 200000001 cycles: 128074109 (Simulation time: 0 hr 4 min 53 sec) 

Heartbeat CPU 0 instructions: 210000001 cycles: 145413850 heartbeat IPC: 0.57671 cumulative IPC: 0.57671 (Simulation time: 0 hr 5 min 11 sec) 
Heartbeat CPU 0 instructions: 220000000 cycles: 170446314 heartbeat IPC: 0.399481 cumulative IPC: 0.472008 (Simulation time: 0 hr 5 min 28 sec) 
Heartbeat CPU 0 instructions: 230000002 cycles: 192520162 heartbeat IPC: 0.453025 cumulative IPC: 0.465506 (Simulation time: 0 hr 5 min 44 sec) 
Heartbeat CPU 0 instructions: 240000000 cycles: 212376438 heartbeat IPC: 0.503619 cumulative IPC: 0.474483 (Simulation time: 0 hr 6 min 1 sec) 
Heartbeat CPU 0 instructions: 250000003 cycles: 228168698 heartbeat IPC: 0.633222 cumulative IPC: 0.499528 (Simulation time: 0 hr 6 min 21 sec) 
Heartbeat CPU 0 instructions: 260000000 cycles: 244004184 heartbeat IPC: 0.631493 cumulative IPC: 0.517553 (Simulation time: 0 hr 6 min 41 sec) 
Heartbeat CPU 0 instructions: 270000000 cycles: 259666006 heartbeat IPC: 0.638495 cumulative IPC: 0.531948 (Simulation time: 0 hr 7 min 1 sec) 
Heartbeat CPU 0 instructions: 280000000 cycles: 275221343 heartbeat IPC: 0.642866 cumulative IPC: 0.543673 (Simulation time: 0 hr 7 min 21 sec) 
Heartbeat CPU 0 instructions: 290000001 cycles: 290823483 heartbeat IPC: 0.640938 cumulative IPC: 0.552998 (Simulation time: 0 hr 7 min 40 sec) 
Heartbeat CPU 0 instructions: 300000000 cycles: 306348329 heartbeat IPC: 0.644129 cumulative IPC: 0.560934 (Simulation time: 0 hr 8 min 0 sec) 
Heartbeat CPU 0 instructions: 310000000 cycles: 321931851 heartbeat IPC: 0.641703 cumulative IPC: 0.567426 (Simulation time: 0 hr 8 min 20 sec) 
Heartbeat CPU 0 instructions: 320000000 cycles: 337530937 heartbeat IPC: 0.641063 cumulative IPC: 0.57291 (Simulation time: 0 hr 8 min 40 sec) 
Heartbeat CPU 0 instructions: 330000002 cycles: 353315923 heartbeat IPC: 0.633514 cumulative IPC: 0.577157 (Simulation time: 0 hr 9 min 0 sec) 
Heartbeat CPU 0 instructions: 340000000 cycles: 368970664 heartbeat IPC: 0.638784 cumulative IPC: 0.581162 (Simulation time: 0 hr 9 min 20 sec) 
Heartbeat CPU 0 instructions: 350000000 cycles: 384554319 heartbeat IPC: 0.641698 cumulative IPC: 0.58484 (Simulation time: 0 hr 9 min 39 sec) 
Heartbeat CPU 0 instructions: 360000000 cycles: 400211664 heartbeat IPC: 0.638678 cumulative IPC: 0.587938 (Simulation time: 0 hr 9 min 58 sec) 
Heartbeat CPU 0 instructions: 370000003 cycles: 415800868 heartbeat IPC: 0.64147 cumulative IPC: 0.590838 (Simulation time: 0 hr 10 min 18 sec) 
Heartbeat CPU 0 instructions: 380000000 cycles: 431401833 heartbeat IPC: 0.640986 cumulative IPC: 0.593418 (Simulation time: 0 hr 10 min 38 sec) 
Heartbeat CPU 0 instructions: 390000000 cycles: 447046983 heartbeat IPC: 0.639176 cumulative IPC: 0.595662 (Simulation time: 0 hr 10 min 57 sec) 
Heartbeat CPU 0 instructions: 400000000 cycles: 462647072 heartbeat IPC: 0.641022 cumulative IPC: 0.597777 (Simulation time: 0 hr 11 min 17 sec) 
Heartbeat CPU 0 instructions: 410000000 cycles: 478406696 heartbeat IPC: 0.634533 cumulative IPC: 0.59943 (Simulation time: 0 hr 11 min 36 sec) 
Heartbeat CPU 0 instructions: 420000000 cycles: 494048308 heartbeat IPC: 0.63932 cumulative IPC: 0.601135 (Simulation time: 0 hr 11 min 55 sec) 
Heartbeat CPU 0 instructions: 430000001 cycles: 509697195 heartbeat IPC: 0.639023 cumulative IPC: 0.602689 (Simulation time: 0 hr 12 min 15 sec) 
Heartbeat CPU 0 instructions: 440000000 cycles: 525336432 heartbeat IPC: 0.639417 cumulative IPC: 0.604135 (Simulation time: 0 hr 12 min 34 sec) 
Heartbeat CPU 0 instructions: 450000001 cycles: 541013759 heartbeat IPC: 0.637864 cumulative IPC: 0.605415 (Simulation time: 0 hr 12 min 53 sec) 
Heartbeat CPU 0 instructions: 460000000 cycles: 556704808 heartbeat IPC: 0.637306 cumulative IPC: 0.606583 (Simulation time: 0 hr 13 min 13 sec) 
Heartbeat CPU 0 instructions: 470000002 cycles: 572423283 heartbeat IPC: 0.636194 cumulative IPC: 0.60763 (Simulation time: 0 hr 13 min 32 sec) 
Heartbeat CPU 0 instructions: 480000000 cycles: 588121071 heartbeat IPC: 0.637032 cumulative IPC: 0.608634 (Simulation time: 0 hr 13 min 52 sec) 
Heartbeat CPU 0 instructions: 490000000 cycles: 603785679 heartbeat IPC: 0.638382 cumulative IPC: 0.609613 (Simulation time: 0 hr 14 min 11 sec) 
Heartbeat CPU 0 instructions: 500000000 cycles: 619520350 heartbeat IPC: 0.635539 cumulative IPC: 0.610443 (Simulation time: 0 hr 14 min 30 sec) 
Heartbeat CPU 0 instructions: 510000003 cycles: 635163548 heartbeat IPC: 0.639256 cumulative IPC: 0.611332 (Simulation time: 0 hr 14 min 50 sec) 
Heartbeat CPU 0 instructions: 520000000 cycles: 650826640 heartbeat IPC: 0.638443 cumulative IPC: 0.612144 (Simulation time: 0 hr 15 min 10 sec) 
Heartbeat CPU 0 instructions: 530000002 cycles: 667169345 heartbeat IPC: 0.611894 cumulative IPC: 0.612137 (Simulation time: 0 hr 15 min 27 sec) 
Heartbeat CPU 0 instructions: 540000000 cycles: 683557855 heartbeat IPC: 0.610183 cumulative IPC: 0.612079 (Simulation time: 0 hr 15 min 40 sec) 
Heartbeat CPU 0 instructions: 550000001 cycles: 710153708 heartbeat IPC: 0.375998 cumulative IPC: 0.601292 (Simulation time: 0 hr 15 min 59 sec) 
Heartbeat CPU 0 instructions: 560000000 cycles: 739879536 heartbeat IPC: 0.336408 cumulative IPC: 0.588422 (Simulation time: 0 hr 16 min 20 sec) 
Heartbeat CPU 0 instructions: 570000000 cycles: 768044925 heartbeat IPC: 0.355046 cumulative IPC: 0.578151 (Simulation time: 0 hr 16 min 39 sec) 
Heartbeat CPU 0 instructions: 580000000 cycles: 784032888 heartbeat IPC: 0.625471 cumulative IPC: 0.579305 (Simulation time: 0 hr 16 min 51 sec) 
Heartbeat CPU 0 instructions: 590000000 cycles: 810866143 heartbeat IPC: 0.372672 cumulative IPC: 0.571184 (Simulation time: 0 hr 17 min 8 sec) 
Heartbeat CPU 0 instructions: 600000000 cycles: 835253065 heartbeat IPC: 0.410056 cumulative IPC: 0.565628 (Simulation time: 0 hr 17 min 24 sec) 
Heartbeat CPU 0 instructions: 610000000 cycles: 859821740 heartbeat IPC: 0.407022 cumulative IPC: 0.560302 (Simulation time: 0 hr 17 min 41 sec) 
Heartbeat CPU 0 instructions: 620000000 cycles: 879486014 heartbeat IPC: 0.508536 cumulative IPC: 0.558948 (Simulation time: 0 hr 17 min 59 sec) 
Heartbeat CPU 0 instructions: 630000002 cycles: 895319456 heartbeat IPC: 0.631575 cumulative IPC: 0.560447 (Simulation time: 0 hr 18 min 18 sec) 
Heartbeat CPU 0 instructions: 640000000 cycles: 910714266 heartbeat IPC: 0.649569 cumulative IPC: 0.5622 (Simulation time: 0 hr 18 min 37 sec) 
Heartbeat CPU 0 instructions: 650000000 cycles: 925910019 heartbeat IPC: 0.658079 cumulative IPC: 0.564026 (Simulation time: 0 hr 18 min 56 sec) 
Heartbeat CPU 0 instructions: 660000000 cycles: 941339455 heartbeat IPC: 0.648112 cumulative IPC: 0.565621 (Simulation time: 0 hr 19 min 15 sec) 
Heartbeat CPU 0 instructions: 670000002 cycles: 956864969 heartbeat IPC: 0.644101 cumulative IPC: 0.567091 (Simulation time: 0 hr 19 min 34 sec) 
Heartbeat CPU 0 instructions: 680000000 cycles: 972477064 heartbeat IPC: 0.640529 cumulative IPC: 0.568449 (Simulation time: 0 hr 19 min 53 sec) 
Heartbeat CPU 0 instructions: 690000000 cycles: 987840513 heartbeat IPC: 0.650896 cumulative IPC: 0.569922 (Simulation time: 0 hr 20 min 12 sec) 
Heartbeat CPU 0 instructions: 700000000 cycles: 1003223158 heartbeat IPC: 0.650083 cumulative IPC: 0.571331 (Simulation time: 0 hr 20 min 32 sec) 
Finished CPU 0 instructions: 500000000 cycles: 875149057 cumulative IPC: 0.571331 (Simulation time: 0 hr 20 min 32 sec) 

CPU 0 Branch Prediction Accuracy: 82.039% MPKI: 9.76849

ChampSim completed all CPUs

Region of Interest Statistics

CPU 0 cumulative IPC: 0.571331 instructions: 500000000 cycles: 875149057
L1D TOTAL     ACCESS:  173105497  HIT:  160916467  MISS:   12189030
L1D LOAD      ACCESS:  157542003  HIT:  145622020  MISS:   11919983
L1D RFO       ACCESS:   15563494  HIT:   15294447  MISS:     269047
L1D PREFETCH  ACCESS:          0  HIT:          0  MISS:          0
L1D WRITEBACK ACCESS:          0  HIT:          0  MISS:          0
L1D PREFETCH  REQUESTED:          0  ISSUED:          0  FILLED:          0  USEFUL:          0  USELESS:          0
L1I TOTAL     ACCESS:   87505496  HIT:   87505432  MISS:         64
L1I LOAD      ACCESS:   87505496  HIT:   87505432  MISS:         64
L1I RFO       ACCESS:          0  HIT:          0  MISS:          0
L1I PREFETCH  ACCESS:          0  HIT:          0  MISS:          0
L1I WRITEBACK ACCESS:          0  HIT:          0  MISS:          0
L1I PREFETCH  REQUESTED:          0  ISSUED:          0  FILLED:          0  USEFUL:          0  USELESS:          0
L2C TOTAL     ACCESS:   13152902  HIT:    1731121  MISS:   11421781
L2C LOAD      ACCESS:   11918228  HIT:     722202  MISS:   11196026
L2C RFO       ACCESS:     268815  HIT:      45357  MISS:     223458
L2C PREFETCH  ACCESS:          0  HIT:          0  MISS:          0
L2C WRITEBACK ACCESS:     965859  HIT:     963562  MISS:       2297
L2C PREFETCH  REQUESTED:          0  ISSUED:          0  FILLED:          0  USEFUL:          0  USELESS:          0
LLC TOTAL     ACCESS:   12321611  HIT:     127676  MISS:   12193935
LLC LOAD      ACCESS:   11196026  HIT:      35566  MISS:   11160460
LLC RFO       ACCESS:     223458  HIT:       3626  MISS:     219832
LLC PREFETCH  ACCESS:          0  HIT:          0  MISS:          0
LLC WRITEBACK ACCESS:     902127  HIT:      88484  MISS:     813643
LLC PREFETCH  REQUESTED:          0  ISSUED:          0  FILLED:          0  USEFUL:          0  USELESS:          0
DTLB TOTAL     ACCESS:  173135995  HIT:  172694715  MISS:     441280
DTLB LOAD      ACCESS:  161176390  HIT:  160739035  MISS:     437355
DTLB RFO       ACCESS:   11959605  HIT:   11955680  MISS:       3925
DTLB PREFETCH  ACCESS:          0  HIT:          0  MISS:          0
DTLB WRITEBACK ACCESS:          0  HIT:          0  MISS:          0
DTLB PREFETCH  REQUESTED:          0  ISSUED:          0  FILLED:          0  USEFUL:          0  USELESS:          0
ITLB TOTAL     ACCESS:   68147354  HIT:   68147352  MISS:          2
ITLB LOAD      ACCESS:   68147354  HIT:   68147352  MISS:          2
ITLB RFO       ACCESS:          0  HIT:          0  MISS:          0
ITLB PREFETCH  ACCESS:          0  HIT:          0  MISS:          0
ITLB WRITEBACK ACCESS:          0  HIT:          0  MISS:          0
ITLB PREFETCH  REQUESTED:          0  ISSUED:          0  FILLED:          0  USEFUL:          0  USELESS:          0
STLB TOTAL     ACCESS:     441282  HIT:     265802  MISS:     175480
STLB LOAD      ACCESS:     437357  HIT:     265370  MISS:     171987
STLB RFO       ACCESS:       3925  HIT:        432  MISS:       3493
STLB PREFETCH  ACCESS:          0  HIT:          0  MISS:          0
STLB WRITEBACK ACCESS:          0  HIT:          0  MISS:          0
STLB PREFETCH  REQUESTED:          0  ISSUED:          0  FILLED:          0  USEFUL:          0  USELESS:          0
Major fault: 0 Minor fault: 108279

Invalid block evictions: 32768
DBP Decisions: 759132
Mockingjay Decisions: 2096139
Non Writeback Decisions: 13851476

DB Predictions at the end: 
0 24451439
1 165202
3 1715481
6 1272159
9 5311529


DRAM Statistics
 CHANNEL 0
 RQ ROW_BUFFER_HIT:    9572777  ROW_BUFFER_MISS:    1807414
 DBUS_CONGESTED:    4090431
 WQ ROW_BUFFER_HIT:     521925  ROW_BUFFER_MISS:     380161  FULL:          0

 AVG_CONGESTED_CYCLE: 11
