
*** ChampSim Multicore Out-of-Order Simulator ***

Warmup Instructions: 200000000
Simulation Instructions: 500000000
Number of CPUs: 1
LLC sets: 2048
LLC ways: 16
Off-chip DRAM Size: 4096 MB Channels: 1 Width: 64-bit Data Rate: 1600 MT/s

CPU 0 runs ./tracefiles/gamess_196B.trace.xz
CPU 0 Bimodal branch predictor
Heartbeat CPU 0 instructions: 10000003 cycles: 4745106 heartbeat IPC: 2.10744 cumulative IPC: 2.10744 (Simulation time: 0 hr 0 min 11 sec) 
Heartbeat CPU 0 instructions: 20000000 cycles: 9872919 heartbeat IPC: 1.95015 cumulative IPC: 2.02574 (Simulation time: 0 hr 0 min 23 sec) 
Heartbeat CPU 0 instructions: 30000001 cycles: 15103066 heartbeat IPC: 1.91199 cumulative IPC: 1.98635 (Simulation time: 0 hr 0 min 35 sec) 
Heartbeat CPU 0 instructions: 40000000 cycles: 20222367 heartbeat IPC: 1.95339 cumulative IPC: 1.97801 (Simulation time: 0 hr 0 min 46 sec) 
Heartbeat CPU 0 instructions: 50000003 cycles: 25489749 heartbeat IPC: 1.89848 cumulative IPC: 1.96157 (Simulation time: 0 hr 0 min 57 sec) 
Heartbeat CPU 0 instructions: 60000000 cycles: 30720417 heartbeat IPC: 1.9118 cumulative IPC: 1.9531 (Simulation time: 0 hr 1 min 9 sec) 
Heartbeat CPU 0 instructions: 70000003 cycles: 36007505 heartbeat IPC: 1.8914 cumulative IPC: 1.94404 (Simulation time: 0 hr 1 min 20 sec) 
Heartbeat CPU 0 instructions: 80000000 cycles: 41297233 heartbeat IPC: 1.89046 cumulative IPC: 1.93718 (Simulation time: 0 hr 1 min 32 sec) 
Heartbeat CPU 0 instructions: 90000001 cycles: 46572261 heartbeat IPC: 1.89572 cumulative IPC: 1.93248 (Simulation time: 0 hr 1 min 44 sec) 
Heartbeat CPU 0 instructions: 100000000 cycles: 51829237 heartbeat IPC: 1.90223 cumulative IPC: 1.92941 (Simulation time: 0 hr 1 min 55 sec) 
Heartbeat CPU 0 instructions: 110000000 cycles: 57152781 heartbeat IPC: 1.87845 cumulative IPC: 1.92467 (Simulation time: 0 hr 2 min 7 sec) 
Heartbeat CPU 0 instructions: 120000000 cycles: 62460439 heartbeat IPC: 1.88407 cumulative IPC: 1.92122 (Simulation time: 0 hr 2 min 19 sec) 
Heartbeat CPU 0 instructions: 130000001 cycles: 67625218 heartbeat IPC: 1.93619 cumulative IPC: 1.92236 (Simulation time: 0 hr 2 min 30 sec) 
Heartbeat CPU 0 instructions: 140000000 cycles: 72611319 heartbeat IPC: 2.00557 cumulative IPC: 1.92807 (Simulation time: 0 hr 2 min 42 sec) 
Heartbeat CPU 0 instructions: 150000003 cycles: 77397639 heartbeat IPC: 2.08929 cumulative IPC: 1.93804 (Simulation time: 0 hr 2 min 53 sec) 
Heartbeat CPU 0 instructions: 160000000 cycles: 82486504 heartbeat IPC: 1.96507 cumulative IPC: 1.93971 (Simulation time: 0 hr 3 min 4 sec) 
Heartbeat CPU 0 instructions: 170000002 cycles: 87301813 heartbeat IPC: 2.07671 cumulative IPC: 1.94727 (Simulation time: 0 hr 3 min 16 sec) 
Heartbeat CPU 0 instructions: 180000000 cycles: 92440911 heartbeat IPC: 1.94587 cumulative IPC: 1.94719 (Simulation time: 0 hr 3 min 27 sec) 
Heartbeat CPU 0 instructions: 190000003 cycles: 97416570 heartbeat IPC: 2.00978 cumulative IPC: 1.95039 (Simulation time: 0 hr 3 min 39 sec) 
Heartbeat CPU 0 instructions: 200000000 cycles: 102080884 heartbeat IPC: 2.14394 cumulative IPC: 1.95923 (Simulation time: 0 hr 3 min 50 sec) 

Warmup complete CPU 0 instructions: 200000001 cycles: 102080885 (Simulation time: 0 hr 3 min 50 sec) 

Heartbeat CPU 0 instructions: 210000003 cycles: 113143510 heartbeat IPC: 0.903945 cumulative IPC: 0.903945 (Simulation time: 0 hr 4 min 5 sec) 
Heartbeat CPU 0 instructions: 220000000 cycles: 123320477 heartbeat IPC: 0.982611 cumulative IPC: 0.941638 (Simulation time: 0 hr 4 min 20 sec) 
Heartbeat CPU 0 instructions: 230000000 cycles: 133553373 heartbeat IPC: 0.97724 cumulative IPC: 0.953213 (Simulation time: 0 hr 4 min 35 sec) 
Heartbeat CPU 0 instructions: 240000000 cycles: 143687197 heartbeat IPC: 0.986794 cumulative IPC: 0.961393 (Simulation time: 0 hr 4 min 50 sec) 
Heartbeat CPU 0 instructions: 250000001 cycles: 154273368 heartbeat IPC: 0.944629 cumulative IPC: 0.957992 (Simulation time: 0 hr 5 min 5 sec) 
Heartbeat CPU 0 instructions: 260000000 cycles: 164203387 heartbeat IPC: 1.00705 cumulative IPC: 0.965834 (Simulation time: 0 hr 5 min 20 sec) 
Heartbeat CPU 0 instructions: 270000003 cycles: 174879250 heartbeat IPC: 0.936693 cumulative IPC: 0.96156 (Simulation time: 0 hr 5 min 35 sec) 
Heartbeat CPU 0 instructions: 280000000 cycles: 185020933 heartbeat IPC: 0.986029 cumulative IPC: 0.964552 (Simulation time: 0 hr 5 min 49 sec) 
Heartbeat CPU 0 instructions: 290000000 cycles: 195256812 heartbeat IPC: 0.976956 cumulative IPC: 0.965915 (Simulation time: 0 hr 6 min 4 sec) 
Heartbeat CPU 0 instructions: 300000000 cycles: 205470184 heartbeat IPC: 0.979109 cumulative IPC: 0.967218 (Simulation time: 0 hr 6 min 18 sec) 
Heartbeat CPU 0 instructions: 310000000 cycles: 216023986 heartbeat IPC: 0.947526 cumulative IPC: 0.965394 (Simulation time: 0 hr 6 min 33 sec) 
Heartbeat CPU 0 instructions: 320000000 cycles: 225974493 heartbeat IPC: 1.00497 cumulative IPC: 0.968573 (Simulation time: 0 hr 6 min 49 sec) 
Heartbeat CPU 0 instructions: 330000001 cycles: 236672470 heartbeat IPC: 0.934756 cumulative IPC: 0.965885 (Simulation time: 0 hr 7 min 4 sec) 
Heartbeat CPU 0 instructions: 340000000 cycles: 246669644 heartbeat IPC: 1.00028 cumulative IPC: 0.968263 (Simulation time: 0 hr 7 min 18 sec) 
Heartbeat CPU 0 instructions: 350000001 cycles: 257076651 heartbeat IPC: 0.960891 cumulative IPC: 0.967768 (Simulation time: 0 hr 7 min 33 sec) 
Heartbeat CPU 0 instructions: 360000000 cycles: 267720720 heartbeat IPC: 0.93949 cumulative IPC: 0.965951 (Simulation time: 0 hr 7 min 47 sec) 
Heartbeat CPU 0 instructions: 370000003 cycles: 278539288 heartbeat IPC: 0.924337 cumulative IPC: 0.9634 (Simulation time: 0 hr 8 min 2 sec) 
Heartbeat CPU 0 instructions: 380000000 cycles: 288586644 heartbeat IPC: 0.995286 cumulative IPC: 0.965118 (Simulation time: 0 hr 8 min 16 sec) 
Heartbeat CPU 0 instructions: 390000003 cycles: 298647241 heartbeat IPC: 0.993977 cumulative IPC: 0.966595 (Simulation time: 0 hr 8 min 30 sec) 
Heartbeat CPU 0 instructions: 400000000 cycles: 310011851 heartbeat IPC: 0.879924 cumulative IPC: 0.961858 (Simulation time: 0 hr 8 min 45 sec) 
Heartbeat CPU 0 instructions: 410000001 cycles: 320001805 heartbeat IPC: 1.00101 cumulative IPC: 0.963652 (Simulation time: 0 hr 8 min 59 sec) 
Heartbeat CPU 0 instructions: 420000000 cycles: 329925894 heartbeat IPC: 1.00765 cumulative IPC: 0.965569 (Simulation time: 0 hr 9 min 13 sec) 
Heartbeat CPU 0 instructions: 430000000 cycles: 340301344 heartbeat IPC: 0.963814 cumulative IPC: 0.965492 (Simulation time: 0 hr 9 min 28 sec) 
Heartbeat CPU 0 instructions: 440000000 cycles: 351667413 heartbeat IPC: 0.879812 cumulative IPC: 0.96159 (Simulation time: 0 hr 9 min 43 sec) 
Heartbeat CPU 0 instructions: 450000000 cycles: 361618380 heartbeat IPC: 1.00493 cumulative IPC: 0.963252 (Simulation time: 0 hr 9 min 57 sec) 
Heartbeat CPU 0 instructions: 460000000 cycles: 371629730 heartbeat IPC: 0.998866 cumulative IPC: 0.964575 (Simulation time: 0 hr 10 min 12 sec) 
Heartbeat CPU 0 instructions: 470000002 cycles: 382204862 heartbeat IPC: 0.945615 cumulative IPC: 0.963859 (Simulation time: 0 hr 10 min 27 sec) 
Heartbeat CPU 0 instructions: 480000000 cycles: 394497729 heartbeat IPC: 0.81348 cumulative IPC: 0.957537 (Simulation time: 0 hr 10 min 42 sec) 
Heartbeat CPU 0 instructions: 490000001 cycles: 406505338 heartbeat IPC: 0.832805 cumulative IPC: 0.952617 (Simulation time: 0 hr 10 min 57 sec) 
Heartbeat CPU 0 instructions: 500000000 cycles: 418435778 heartbeat IPC: 0.838192 cumulative IPC: 0.948302 (Simulation time: 0 hr 11 min 12 sec) 
Heartbeat CPU 0 instructions: 510000001 cycles: 430214567 heartbeat IPC: 0.848984 cumulative IPC: 0.944737 (Simulation time: 0 hr 11 min 27 sec) 
Heartbeat CPU 0 instructions: 520000000 cycles: 442696913 heartbeat IPC: 0.801131 cumulative IPC: 0.939474 (Simulation time: 0 hr 11 min 43 sec) 
Heartbeat CPU 0 instructions: 530000003 cycles: 454751368 heartbeat IPC: 0.829569 cumulative IPC: 0.935718 (Simulation time: 0 hr 11 min 57 sec) 
Heartbeat CPU 0 instructions: 540000000 cycles: 466619437 heartbeat IPC: 0.842597 cumulative IPC: 0.932686 (Simulation time: 0 hr 12 min 12 sec) 
Heartbeat CPU 0 instructions: 550000000 cycles: 478890299 heartbeat IPC: 0.814939 cumulative IPC: 0.928852 (Simulation time: 0 hr 12 min 28 sec) 
Heartbeat CPU 0 instructions: 560000000 cycles: 490862801 heartbeat IPC: 0.835247 cumulative IPC: 0.925969 (Simulation time: 0 hr 12 min 43 sec) 
Heartbeat CPU 0 instructions: 570000000 cycles: 503001503 heartbeat IPC: 0.823811 cumulative IPC: 0.922876 (Simulation time: 0 hr 12 min 58 sec) 
Heartbeat CPU 0 instructions: 580000000 cycles: 514916606 heartbeat IPC: 0.839271 cumulative IPC: 0.920463 (Simulation time: 0 hr 13 min 13 sec) 
Heartbeat CPU 0 instructions: 590000002 cycles: 526859505 heartbeat IPC: 0.837318 cumulative IPC: 0.918125 (Simulation time: 0 hr 13 min 28 sec) 
Heartbeat CPU 0 instructions: 600000000 cycles: 539054572 heartbeat IPC: 0.820004 cumulative IPC: 0.915387 (Simulation time: 0 hr 13 min 43 sec) 
Heartbeat CPU 0 instructions: 610000000 cycles: 551020852 heartbeat IPC: 0.835682 cumulative IPC: 0.913262 (Simulation time: 0 hr 13 min 59 sec) 
Heartbeat CPU 0 instructions: 620000000 cycles: 562820704 heartbeat IPC: 0.847468 cumulative IPC: 0.911577 (Simulation time: 0 hr 14 min 14 sec) 
Heartbeat CPU 0 instructions: 630000000 cycles: 574165038 heartbeat IPC: 0.881497 cumulative IPC: 0.910855 (Simulation time: 0 hr 14 min 29 sec) 
Heartbeat CPU 0 instructions: 640000000 cycles: 584385673 heartbeat IPC: 0.978413 cumulative IPC: 0.912286 (Simulation time: 0 hr 14 min 44 sec) 
Heartbeat CPU 0 instructions: 650000000 cycles: 594616589 heartbeat IPC: 0.97743 cumulative IPC: 0.913639 (Simulation time: 0 hr 14 min 59 sec) 
Heartbeat CPU 0 instructions: 660000000 cycles: 604978033 heartbeat IPC: 0.965116 cumulative IPC: 0.9147 (Simulation time: 0 hr 15 min 13 sec) 
Heartbeat CPU 0 instructions: 670000002 cycles: 615026274 heartbeat IPC: 0.995199 cumulative IPC: 0.916277 (Simulation time: 0 hr 15 min 28 sec) 
Heartbeat CPU 0 instructions: 680000000 cycles: 625131869 heartbeat IPC: 0.989551 cumulative IPC: 0.917693 (Simulation time: 0 hr 15 min 42 sec) 
Heartbeat CPU 0 instructions: 690000001 cycles: 635515651 heartbeat IPC: 0.96304 cumulative IPC: 0.918575 (Simulation time: 0 hr 15 min 56 sec) 
Heartbeat CPU 0 instructions: 700000000 cycles: 645584327 heartbeat IPC: 0.993179 cumulative IPC: 0.919957 (Simulation time: 0 hr 16 min 10 sec) 
Finished CPU 0 instructions: 500000002 cycles: 543503451 cumulative IPC: 0.919957 (Simulation time: 0 hr 16 min 10 sec) 

CPU 0 Branch Prediction Accuracy: 94.2273% MPKI: 5.27511

ChampSim completed all CPUs

Region of Interest Statistics

CPU 0 cumulative IPC: 0.919957 instructions: 500000002 cycles: 543503451
L1D TOTAL     ACCESS:  163164616  HIT:  161739244  MISS:    1425372
L1D LOAD      ACCESS:  106189748  HIT:  105337665  MISS:     852083
L1D RFO       ACCESS:   56974868  HIT:   56401579  MISS:     573289
L1D PREFETCH  ACCESS:          0  HIT:          0  MISS:          0
L1D WRITEBACK ACCESS:          0  HIT:          0  MISS:          0
L1D PREFETCH  REQUESTED:          0  ISSUED:          0  FILLED:          0  USEFUL:          0  USELESS:          0
L1I TOTAL     ACCESS:  116920147  HIT:  116288625  MISS:     631522
L1I LOAD      ACCESS:  116920147  HIT:  116288625  MISS:     631522
L1I RFO       ACCESS:          0  HIT:          0  MISS:          0
L1I PREFETCH  ACCESS:          0  HIT:          0  MISS:          0
L1I WRITEBACK ACCESS:          0  HIT:          0  MISS:          0
L1I PREFETCH  REQUESTED:          0  ISSUED:          0  FILLED:          0  USEFUL:          0  USELESS:          0
L2C TOTAL     ACCESS:    2736291  HIT:    2703592  MISS:      32699
L2C LOAD      ACCESS:    1483437  HIT:    1452768  MISS:      30669
L2C RFO       ACCESS:     570220  HIT:     568432  MISS:       1788
L2C PREFETCH  ACCESS:          0  HIT:          0  MISS:          0
L2C WRITEBACK ACCESS:     682634  HIT:     682392  MISS:        242
L2C PREFETCH  REQUESTED:          0  ISSUED:          0  FILLED:          0  USEFUL:          0  USELESS:          0
LLC TOTAL     ACCESS:      41190  HIT:      40434  MISS:        756
LLC LOAD      ACCESS:      30669  HIT:      29921  MISS:        748
LLC RFO       ACCESS:       1788  HIT:       1780  MISS:          8
LLC PREFETCH  ACCESS:          0  HIT:          0  MISS:          0
LLC WRITEBACK ACCESS:       8733  HIT:       8733  MISS:          0
LLC PREFETCH  REQUESTED:          0  ISSUED:          0  FILLED:          0  USEFUL:          0  USELESS:          0
DTLB TOTAL     ACCESS:  132819092  HIT:  131197129  MISS:    1621963
DTLB LOAD      ACCESS:   92085320  HIT:   90792362  MISS:    1292958
DTLB RFO       ACCESS:   40733772  HIT:   40404767  MISS:     329005
DTLB PREFETCH  ACCESS:          0  HIT:          0  MISS:          0
DTLB WRITEBACK ACCESS:          0  HIT:          0  MISS:          0
DTLB PREFETCH  REQUESTED:          0  ISSUED:          0  FILLED:          0  USEFUL:          0  USELESS:          0
ITLB TOTAL     ACCESS:   89676092  HIT:   89676088  MISS:          4
ITLB LOAD      ACCESS:   89676092  HIT:   89676088  MISS:          4
ITLB RFO       ACCESS:          0  HIT:          0  MISS:          0
ITLB PREFETCH  ACCESS:          0  HIT:          0  MISS:          0
ITLB WRITEBACK ACCESS:          0  HIT:          0  MISS:          0
ITLB PREFETCH  REQUESTED:          0  ISSUED:          0  FILLED:          0  USEFUL:          0  USELESS:          0
STLB TOTAL     ACCESS:    1621967  HIT:    1621960  MISS:          7
STLB LOAD      ACCESS:    1292962  HIT:    1292955  MISS:          7
STLB RFO       ACCESS:     329005  HIT:     329005  MISS:          0
STLB PREFETCH  ACCESS:          0  HIT:          0  MISS:          0
STLB WRITEBACK ACCESS:          0  HIT:          0  MISS:          0
STLB PREFETCH  REQUESTED:          0  ISSUED:          0  FILLED:          0  USEFUL:          0  USELESS:          0
Major fault: 0 Minor fault: 217
hello world!

DRAM Statistics
 CHANNEL 0
 RQ ROW_BUFFER_HIT:        569  ROW_BUFFER_MISS:        187
 DBUS_CONGESTED:        214
 WQ ROW_BUFFER_HIT:          0  ROW_BUFFER_MISS:          0  FULL:          0

 AVG_CONGESTED_CYCLE: 12
