
*** ChampSim Multicore Out-of-Order Simulator ***

Warmup Instructions: 200000000
Simulation Instructions: 500000000
Number of CPUs: 1
LLC sets: 2048
LLC ways: 16
Off-chip DRAM Size: 4096 MB Channels: 1 Width: 64-bit Data Rate: 1600 MT/s

CPU 0 runs ./tracefiles/gcc_56B.trace.xz
CPU 0 Bimodal branch predictor
Heartbeat CPU 0 instructions: 10000002 cycles: 9829567 heartbeat IPC: 1.01734 cumulative IPC: 1.01734 (Simulation time: 0 hr 0 min 15 sec) 
Heartbeat CPU 0 instructions: 20000000 cycles: 19516480 heartbeat IPC: 1.03232 cumulative IPC: 1.02477 (Simulation time: 0 hr 0 min 29 sec) 
Heartbeat CPU 0 instructions: 30000000 cycles: 29347176 heartbeat IPC: 1.01722 cumulative IPC: 1.02224 (Simulation time: 0 hr 0 min 44 sec) 
Heartbeat CPU 0 instructions: 40000000 cycles: 39069131 heartbeat IPC: 1.0286 cumulative IPC: 1.02383 (Simulation time: 0 hr 0 min 58 sec) 
Heartbeat CPU 0 instructions: 50000000 cycles: 48964122 heartbeat IPC: 1.01061 cumulative IPC: 1.02116 (Simulation time: 0 hr 1 min 13 sec) 
Heartbeat CPU 0 instructions: 60000000 cycles: 58539628 heartbeat IPC: 1.04433 cumulative IPC: 1.02495 (Simulation time: 0 hr 1 min 27 sec) 
Heartbeat CPU 0 instructions: 70000000 cycles: 68361126 heartbeat IPC: 1.01817 cumulative IPC: 1.02397 (Simulation time: 0 hr 1 min 42 sec) 
Heartbeat CPU 0 instructions: 80000000 cycles: 78103908 heartbeat IPC: 1.0264 cumulative IPC: 1.02428 (Simulation time: 0 hr 1 min 56 sec) 
Heartbeat CPU 0 instructions: 90000000 cycles: 87744646 heartbeat IPC: 1.03726 cumulative IPC: 1.0257 (Simulation time: 0 hr 2 min 10 sec) 
Heartbeat CPU 0 instructions: 100000000 cycles: 97318173 heartbeat IPC: 1.04455 cumulative IPC: 1.02756 (Simulation time: 0 hr 2 min 24 sec) 
Heartbeat CPU 0 instructions: 110000000 cycles: 106996220 heartbeat IPC: 1.03327 cumulative IPC: 1.02807 (Simulation time: 0 hr 2 min 38 sec) 
Heartbeat CPU 0 instructions: 120000000 cycles: 116683539 heartbeat IPC: 1.03228 cumulative IPC: 1.02842 (Simulation time: 0 hr 2 min 53 sec) 
Heartbeat CPU 0 instructions: 130000002 cycles: 126255568 heartbeat IPC: 1.04471 cumulative IPC: 1.02966 (Simulation time: 0 hr 3 min 7 sec) 
Heartbeat CPU 0 instructions: 140000000 cycles: 135894205 heartbeat IPC: 1.03749 cumulative IPC: 1.03021 (Simulation time: 0 hr 3 min 21 sec) 
Heartbeat CPU 0 instructions: 150000000 cycles: 145591876 heartbeat IPC: 1.03118 cumulative IPC: 1.03028 (Simulation time: 0 hr 3 min 36 sec) 
Heartbeat CPU 0 instructions: 160000000 cycles: 155188511 heartbeat IPC: 1.04203 cumulative IPC: 1.031 (Simulation time: 0 hr 3 min 50 sec) 
Heartbeat CPU 0 instructions: 170000000 cycles: 164876677 heartbeat IPC: 1.03219 cumulative IPC: 1.03107 (Simulation time: 0 hr 4 min 5 sec) 
Heartbeat CPU 0 instructions: 180000000 cycles: 174478791 heartbeat IPC: 1.04144 cumulative IPC: 1.03164 (Simulation time: 0 hr 4 min 19 sec) 
Heartbeat CPU 0 instructions: 190000001 cycles: 184140224 heartbeat IPC: 1.03504 cumulative IPC: 1.03182 (Simulation time: 0 hr 4 min 34 sec) 
Heartbeat CPU 0 instructions: 200000000 cycles: 193766259 heartbeat IPC: 1.03885 cumulative IPC: 1.03217 (Simulation time: 0 hr 4 min 49 sec) 

Warmup complete CPU 0 instructions: 200000001 cycles: 193766260 (Simulation time: 0 hr 4 min 49 sec) 

Heartbeat CPU 0 instructions: 210000000 cycles: 207622936 heartbeat IPC: 0.721674 cumulative IPC: 0.721674 (Simulation time: 0 hr 5 min 4 sec) 
Heartbeat CPU 0 instructions: 220000000 cycles: 221425913 heartbeat IPC: 0.724481 cumulative IPC: 0.723075 (Simulation time: 0 hr 5 min 20 sec) 
Heartbeat CPU 0 instructions: 230000000 cycles: 235290976 heartbeat IPC: 0.721237 cumulative IPC: 0.722461 (Simulation time: 0 hr 5 min 35 sec) 
Heartbeat CPU 0 instructions: 240000000 cycles: 249123331 heartbeat IPC: 0.722943 cumulative IPC: 0.722582 (Simulation time: 0 hr 5 min 51 sec) 
Heartbeat CPU 0 instructions: 250000001 cycles: 262963057 heartbeat IPC: 0.722558 cumulative IPC: 0.722577 (Simulation time: 0 hr 6 min 7 sec) 
Heartbeat CPU 0 instructions: 260000000 cycles: 276845245 heartbeat IPC: 0.720347 cumulative IPC: 0.722204 (Simulation time: 0 hr 6 min 22 sec) 
Heartbeat CPU 0 instructions: 270000001 cycles: 290674416 heartbeat IPC: 0.723109 cumulative IPC: 0.722333 (Simulation time: 0 hr 6 min 38 sec) 
Heartbeat CPU 0 instructions: 280000000 cycles: 304559496 heartbeat IPC: 0.720197 cumulative IPC: 0.722066 (Simulation time: 0 hr 6 min 53 sec) 
Heartbeat CPU 0 instructions: 290000000 cycles: 318405438 heartbeat IPC: 0.722233 cumulative IPC: 0.722084 (Simulation time: 0 hr 7 min 9 sec) 
Heartbeat CPU 0 instructions: 300000000 cycles: 332259301 heartbeat IPC: 0.72182 cumulative IPC: 0.722058 (Simulation time: 0 hr 7 min 25 sec) 
Heartbeat CPU 0 instructions: 310000002 cycles: 346027775 heartbeat IPC: 0.726297 cumulative IPC: 0.722441 (Simulation time: 0 hr 7 min 41 sec) 
Heartbeat CPU 0 instructions: 320000000 cycles: 359771474 heartbeat IPC: 0.727606 cumulative IPC: 0.722869 (Simulation time: 0 hr 7 min 56 sec) 
Heartbeat CPU 0 instructions: 330000001 cycles: 373595298 heartbeat IPC: 0.723389 cumulative IPC: 0.722909 (Simulation time: 0 hr 8 min 12 sec) 
Heartbeat CPU 0 instructions: 340000000 cycles: 387417611 heartbeat IPC: 0.723468 cumulative IPC: 0.722949 (Simulation time: 0 hr 8 min 28 sec) 
Heartbeat CPU 0 instructions: 350000002 cycles: 401339453 heartbeat IPC: 0.718296 cumulative IPC: 0.722637 (Simulation time: 0 hr 8 min 44 sec) 
Heartbeat CPU 0 instructions: 360000000 cycles: 414996370 heartbeat IPC: 0.73223 cumulative IPC: 0.723229 (Simulation time: 0 hr 8 min 59 sec) 
Heartbeat CPU 0 instructions: 370000000 cycles: 428847705 heartbeat IPC: 0.721952 cumulative IPC: 0.723154 (Simulation time: 0 hr 9 min 15 sec) 
Heartbeat CPU 0 instructions: 380000000 cycles: 442600667 heartbeat IPC: 0.727116 cumulative IPC: 0.723373 (Simulation time: 0 hr 9 min 30 sec) 
Heartbeat CPU 0 instructions: 390000002 cycles: 456405336 heartbeat IPC: 0.724393 cumulative IPC: 0.723426 (Simulation time: 0 hr 9 min 45 sec) 
Heartbeat CPU 0 instructions: 400000000 cycles: 470274490 heartbeat IPC: 0.721024 cumulative IPC: 0.723306 (Simulation time: 0 hr 10 min 1 sec) 
Heartbeat CPU 0 instructions: 410000000 cycles: 484077051 heartbeat IPC: 0.724503 cumulative IPC: 0.723363 (Simulation time: 0 hr 10 min 16 sec) 
Heartbeat CPU 0 instructions: 420000000 cycles: 517480352 heartbeat IPC: 0.299372 cumulative IPC: 0.679612 (Simulation time: 0 hr 10 min 37 sec) 
Heartbeat CPU 0 instructions: 430000002 cycles: 550479861 heartbeat IPC: 0.303035 cumulative IPC: 0.644775 (Simulation time: 0 hr 10 min 50 sec) 
Heartbeat CPU 0 instructions: 440000000 cycles: 582635114 heartbeat IPC: 0.310991 cumulative IPC: 0.617175 (Simulation time: 0 hr 11 min 3 sec) 
Heartbeat CPU 0 instructions: 450000000 cycles: 614793839 heartbeat IPC: 0.310958 cumulative IPC: 0.593785 (Simulation time: 0 hr 11 min 16 sec) 
Heartbeat CPU 0 instructions: 460000000 cycles: 647087818 heartbeat IPC: 0.309655 cumulative IPC: 0.573544 (Simulation time: 0 hr 11 min 29 sec) 
Heartbeat CPU 0 instructions: 470000001 cycles: 679427852 heartbeat IPC: 0.309214 cumulative IPC: 0.555943 (Simulation time: 0 hr 11 min 44 sec) 
Heartbeat CPU 0 instructions: 480000000 cycles: 711192657 heartbeat IPC: 0.314814 cumulative IPC: 0.54114 (Simulation time: 0 hr 11 min 59 sec) 
Heartbeat CPU 0 instructions: 490000003 cycles: 743941351 heartbeat IPC: 0.305356 cumulative IPC: 0.527105 (Simulation time: 0 hr 12 min 12 sec) 
Heartbeat CPU 0 instructions: 500000000 cycles: 782594295 heartbeat IPC: 0.258712 cumulative IPC: 0.509487 (Simulation time: 0 hr 12 min 33 sec) 
Heartbeat CPU 0 instructions: 510000000 cycles: 815567180 heartbeat IPC: 0.303279 cumulative IPC: 0.498552 (Simulation time: 0 hr 12 min 51 sec) 
Heartbeat CPU 0 instructions: 520000000 cycles: 848011247 heartbeat IPC: 0.308223 cumulative IPC: 0.489113 (Simulation time: 0 hr 13 min 8 sec) 
Heartbeat CPU 0 instructions: 530000001 cycles: 880219759 heartbeat IPC: 0.310477 cumulative IPC: 0.480732 (Simulation time: 0 hr 13 min 26 sec) 
Heartbeat CPU 0 instructions: 540000000 cycles: 912074346 heartbeat IPC: 0.313926 cumulative IPC: 0.473334 (Simulation time: 0 hr 13 min 43 sec) 
Heartbeat CPU 0 instructions: 550000000 cycles: 953563618 heartbeat IPC: 0.241026 cumulative IPC: 0.460649 (Simulation time: 0 hr 14 min 1 sec) 
Heartbeat CPU 0 instructions: 560000000 cycles: 981428614 heartbeat IPC: 0.358873 cumulative IPC: 0.457049 (Simulation time: 0 hr 14 min 16 sec) 
Heartbeat CPU 0 instructions: 570000001 cycles: 1008952801 heartbeat IPC: 0.363317 cumulative IPC: 0.453884 (Simulation time: 0 hr 14 min 31 sec) 
Heartbeat CPU 0 instructions: 580000000 cycles: 1037485466 heartbeat IPC: 0.350475 cumulative IPC: 0.450387 (Simulation time: 0 hr 14 min 46 sec) 
Heartbeat CPU 0 instructions: 590000000 cycles: 1065970871 heartbeat IPC: 0.351057 cumulative IPC: 0.447143 (Simulation time: 0 hr 15 min 2 sec) 
Heartbeat CPU 0 instructions: 600000000 cycles: 1094249883 heartbeat IPC: 0.353619 cumulative IPC: 0.444206 (Simulation time: 0 hr 15 min 17 sec) 
Heartbeat CPU 0 instructions: 610000003 cycles: 1122519330 heartbeat IPC: 0.353739 cumulative IPC: 0.441452 (Simulation time: 0 hr 15 min 32 sec) 
Heartbeat CPU 0 instructions: 620000000 cycles: 1151246305 heartbeat IPC: 0.348105 cumulative IPC: 0.438651 (Simulation time: 0 hr 15 min 48 sec) 
Heartbeat CPU 0 instructions: 630000001 cycles: 1179896757 heartbeat IPC: 0.349035 cumulative IPC: 0.436048 (Simulation time: 0 hr 16 min 3 sec) 
Heartbeat CPU 0 instructions: 640000000 cycles: 1208353631 heartbeat IPC: 0.351409 cumulative IPC: 0.433674 (Simulation time: 0 hr 16 min 18 sec) 
Heartbeat CPU 0 instructions: 650000000 cycles: 1236779084 heartbeat IPC: 0.351797 cumulative IPC: 0.431442 (Simulation time: 0 hr 16 min 34 sec) 
Heartbeat CPU 0 instructions: 660000000 cycles: 1265501042 heartbeat IPC: 0.348166 cumulative IPC: 0.429211 (Simulation time: 0 hr 16 min 49 sec) 
Heartbeat CPU 0 instructions: 670000002 cycles: 1293957730 heartbeat IPC: 0.351411 cumulative IPC: 0.427198 (Simulation time: 0 hr 17 min 4 sec) 
Heartbeat CPU 0 instructions: 680000000 cycles: 1322651663 heartbeat IPC: 0.348506 cumulative IPC: 0.425198 (Simulation time: 0 hr 17 min 19 sec) 
Heartbeat CPU 0 instructions: 690000000 cycles: 1351154051 heartbeat IPC: 0.350848 cumulative IPC: 0.423367 (Simulation time: 0 hr 17 min 34 sec) 
Heartbeat CPU 0 instructions: 700000000 cycles: 1379589690 heartbeat IPC: 0.351671 cumulative IPC: 0.421648 (Simulation time: 0 hr 17 min 49 sec) 
Finished CPU 0 instructions: 500000001 cycles: 1185823438 cumulative IPC: 0.421648 (Simulation time: 0 hr 17 min 49 sec) 

CPU 0 Branch Prediction Accuracy: 91.462% MPKI: 15.353

ChampSim completed all CPUs

Region of Interest Statistics

CPU 0 cumulative IPC: 0.421648 instructions: 500000001 cycles: 1185823438
L1D TOTAL     ACCESS:  128898683  HIT:  104280256  MISS:   24618427
L1D LOAD      ACCESS:   70668956  HIT:   69064656  MISS:    1604300
L1D RFO       ACCESS:   58229727  HIT:   35215600  MISS:   23014127
L1D PREFETCH  ACCESS:          0  HIT:          0  MISS:          0
L1D WRITEBACK ACCESS:          0  HIT:          0  MISS:          0
L1D PREFETCH  REQUESTED:          0  ISSUED:          0  FILLED:          0  USEFUL:          0  USELESS:          0
L1I TOTAL     ACCESS:  143981688  HIT:  141583829  MISS:    2397859
L1I LOAD      ACCESS:  143981688  HIT:  141583829  MISS:    2397859
L1I RFO       ACCESS:          0  HIT:          0  MISS:          0
L1I PREFETCH  ACCESS:          0  HIT:          0  MISS:          0
L1I WRITEBACK ACCESS:          0  HIT:          0  MISS:          0
L1I PREFETCH  REQUESTED:          0  ISSUED:          0  FILLED:          0  USEFUL:          0  USELESS:          0
L2C TOTAL     ACCESS:   50270418  HIT:   25793874  MISS:   24476544
L2C LOAD      ACCESS:    4002159  HIT:    2508352  MISS:    1493807
L2C RFO       ACCESS:   23014124  HIT:      33189  MISS:   22980935
L2C PREFETCH  ACCESS:          0  HIT:          0  MISS:          0
L2C WRITEBACK ACCESS:   23254135  HIT:   23252333  MISS:       1802
L2C PREFETCH  REQUESTED:          0  ISSUED:          0  FILLED:          0  USEFUL:          0  USELESS:          0
LLC TOTAL     ACCESS:   47684434  HIT:   46224012  MISS:    1460422
LLC LOAD      ACCESS:    1493807  HIT:     389009  MISS:    1104798
LLC RFO       ACCESS:   22980935  HIT:   22775718  MISS:     205217
LLC PREFETCH  ACCESS:          0  HIT:          0  MISS:          0
LLC WRITEBACK ACCESS:   23209692  HIT:   23059285  MISS:     150407
LLC PREFETCH  REQUESTED:          0  ISSUED:          0  FILLED:          0  USEFUL:          0  USELESS:          0
DTLB TOTAL     ACCESS:  148283587  HIT:  146606606  MISS:    1676981
DTLB LOAD      ACCESS:   68363600  HIT:   67271762  MISS:    1091838
DTLB RFO       ACCESS:   79919987  HIT:   79334844  MISS:     585143
DTLB PREFETCH  ACCESS:          0  HIT:          0  MISS:          0
DTLB WRITEBACK ACCESS:          0  HIT:          0  MISS:          0
DTLB PREFETCH  REQUESTED:          0  ISSUED:          0  FILLED:          0  USEFUL:          0  USELESS:          0
ITLB TOTAL     ACCESS:  104837208  HIT:  104662163  MISS:     175045
ITLB LOAD      ACCESS:  104837208  HIT:  104662163  MISS:     175045
ITLB RFO       ACCESS:          0  HIT:          0  MISS:          0
ITLB PREFETCH  ACCESS:          0  HIT:          0  MISS:          0
ITLB WRITEBACK ACCESS:          0  HIT:          0  MISS:          0
ITLB PREFETCH  REQUESTED:          0  ISSUED:          0  FILLED:          0  USEFUL:          0  USELESS:          0
STLB TOTAL     ACCESS:    1852026  HIT:    1785441  MISS:      66585
STLB LOAD      ACCESS:    1266883  HIT:    1204708  MISS:      62175
STLB RFO       ACCESS:     585143  HIT:     580733  MISS:       4410
STLB PREFETCH  ACCESS:          0  HIT:          0  MISS:          0
STLB WRITEBACK ACCESS:          0  HIT:          0  MISS:          0
STLB PREFETCH  REQUESTED:          0  ISSUED:          0  FILLED:          0  USEFUL:          0  USELESS:          0
Major fault: 0 Minor fault: 14045
hello world!

DRAM Statistics
 CHANNEL 0
 RQ ROW_BUFFER_HIT:     694319  ROW_BUFFER_MISS:     615521
 DBUS_CONGESTED:     404740
 WQ ROW_BUFFER_HIT:      60822  ROW_BUFFER_MISS:     240995  FULL:      28933

 AVG_CONGESTED_CYCLE: 14
