
*** ChampSim Multicore Out-of-Order Simulator ***

Warmup Instructions: 0
Simulation Instructions: 1000000
Number of CPUs: 1
LLC sets: 2048
LLC ways: 16
Off-chip DRAM Size: 4096 MB Channels: 1 Width: 64-bit Data Rate: 1600 MT/s

CPU 0 runs ./tracefiles/10.trace.xz
CPU 0 Bimodal branch predictor
Initialize Hawkeye state
xz: ./tracefiles/10.trace.xz: No such file or directory
*** Reached end of trace for Core: 0 Repeating trace: ./tracefiles/10.trace.xz
xz: ./tracefiles/10.trace.xz: No such file or directory
*** Reached end of trace for Core: 0 Repeating trace: ./tracefiles/10.trace.xz
xz: ./tracefiles/10.trace.xz: No such file or directory
*** Reached end of trace for Core: 0 Repeating trace: ./tracefiles/10.trace.xz
xz: ./tracefiles/10.trace.xz: No such file or directory
*** Reached end of trace for Core: 0 Repeating trace: ./tracefiles/10.trace.xz
xz: ./tracefiles/10.trace.xz: No such file or directory
*** Reached end of trace for Core: 0 Repeating trace: ./tracefiles/10.trace.xz
xz: ./tracefiles/10.trace.xz: No such file or directory
*** Reached end of trace for Core: 0 Repeating trace: ./tracefiles/10.trace.xz
xz: ./tracefiles/10.trace.xz: No such file or directory
*** Reached end of trace for Core: 0 Repeating trace: ./tracefiles/10.trace.xz
xz: ./tracefiles/10.trace.xz: No such file or directory
*** Reached end of trace for Core: 0 Repeating trace: ./tracefiles/10.trace.xz
xz: ./tracefiles/10.trace.xz: No such file or directory
*** Reached end of trace for Core: 0 Repeating trace: ./tracefiles/10.trace.xz
xz: ./tracefiles/10.trace.xz: No such file or directory
*** Reached end of trace for Core: 0 Repeating trace: ./tracefiles/10.trace.xz
xz: ./tracefiles/10.trace.xz: No such file or directory
*** Reached end of trace for Core: 0 Repeating trace: ./tracefiles/10.trace.xz
xz: ./tracefiles/10.trace.xz: No such file or directory
*** Reached end of trace for Core: 0 Repeating trace: ./tracefiles/10.trace.xz
xz: ./tracefiles/10.trace.xz: No such file or directory
*** Reached end of trace for Core: 0 Repeating trace: ./tracefiles/10.trace.xz
xz: ./tracefiles/10.trace.xz: No such file or directory
*** Reached end of trace for Core: 0 Repeating trace: ./tracefiles/10.trace.xz
xz: ./tracefiles/10.trace.xz: No such file or directory
*** Reached end of trace for Core: 0 Repeating trace: ./tracefiles/10.trace.xz
xz: ./tracefiles/10.trace.xz: No such file or directory
*** Reached end of trace for Core: 0 Repeating trace: ./tracefiles/10.trace.xz
xz: ./tracefiles/10.trace.xz: No such file or directory
*** Reached end of trace for Core: 0 Repeating trace: ./tracefiles/10.trace.xz
xz: ./tracefiles/10.trace.xz: No such file or directory
*** Reached end of trace for Core: 0 Repeating trace: ./tracefiles/10.trace.xz
xz: ./tracefiles/10.trace.xz: No such file or directory
*** Reached end of trace for Core: 0 Repeating trace: ./tracefiles/10.trace.xz
xz: ./tracefiles/10.trace.xz: No such file or directory
*** Reached end of trace for Core: 0 Repeating trace: ./tracefiles/10.trace.xz
xz: ./tracefiles/10.trace.xz: No such file or directory
*** Reached end of trace for Core: 0 Repeating trace: ./tracefiles/10.trace.xz
xz: ./tracefiles/10.trace.xz: No such file or directory
*** Reached end of trace for Core: 0 Repeating trace: ./tracefiles/10.trace.xz
xz: ./tracefiles/10.trace.xz: No such file or directory
*** Reached end of trace for Core: 0 Repeating trace: ./tracefiles/10.trace.xz
xz: ./tracefiles/10.trace.xz: No such file or directory
*** Reached end of trace for Core: 0 Repeating trace: ./tracefiles/10.trace.xz
xz: ./tracefiles/10.trace.xz: No such file or directory
*** Reached end of trace for Core: 0 Repeating trace: ./tracefiles/10.trace.xz
xz: ./tracefiles/10.trace.xz: No such file or directory
*** Reached end of trace for Core: 0 Repeating trace: ./tracefiles/10.trace.xz
xz: ./tracefiles/10.trace.xz: No such file or directory
*** Reached end of trace for Core: 0 Repeating trace: ./tracefiles/10.trace.xz
xz: ./tracefiles/10.trace.xz: No such file or directory
*** Reached end of trace for Core: 0 Repeating trace: ./tracefiles/10.trace.xz
xz: ./tracefiles/10.trace.xz: No such file or directory
*** Reached end of trace for Core: 0 Repeating trace: ./tracefiles/10.trace.xz
xz: ./tracefiles/10.trace.xz: No such file or directory
*** Reached end of trace for Core: 0 Repeating trace: ./tracefiles/10.trace.xz
xz: ./tracefiles/10.trace.xz: No such file or directory
*** Reached end of trace for Core: 0 Repeating trace: ./tracefiles/10.trace.xz
xz: ./tracefiles/10.trace.xz: No such file or directory
*** Reached end of trace for Core: 0 Repeating trace: ./tracefiles/10.trace.xz
xz: ./tracefiles/10.trace.xz: No such file or directory
*** Reached end of trace for Core: 0 Repeating trace: ./tracefiles/10.trace.xz
xz: ./tracefiles/10.trace.xz: No such file or directory
*** Reached end of trace for Core: 0 Repeating trace: ./tracefiles/10.trace.xz
xz: ./tracefiles/10.trace.xz: No such file or directory
*** Reached end of trace for Core: 0 Repeating trace: ./tracefiles/10.trace.xz
xz: ./tracefiles/10.trace.xz: No such file or directory
*** Reached end of trace for Core: 0 Repeating trace: ./tracefiles/10.trace.xz
xz: ./tracefiles/10.trace.xz: No such file or directory
*** Reached end of trace for Core: 0 Repeating trace: ./tracefiles/10.trace.xz
xz: ./tracefiles/10.trace.xz: No such file or directory
*** Reached end of trace for Core: 0 Repeating trace: ./tracefiles/10.trace.xz
xz: ./tracefiles/10.trace.xz: No such file or directory
*** Reached end of trace for Core: 0 Repeating trace: ./tracefiles/10.trace.xz
xz: ./tracefiles/10.trace.xz: No such file or directory
*** Reached end of trace for Core: 0 Repeating trace: ./tracefiles/10.trace.xz
xz: ./tracefiles/10.trace.xz: No such file or directory
*** Reached end of trace for Core: 0 Repeating trace: ./tracefiles/10.trace.xz
xz: ./tracefiles/10.trace.xz: No such file or directory
*** Reached end of trace for Core: 0 Repeating trace: ./tracefiles/10.trace.xz
xz: ./tracefiles/10.trace.xz: No such file or directory
*** Reached end of trace for Core: 0 Repeating trace: ./tracefiles/10.trace.xz
xz: ./tracefiles/10.trace.xz: No such file or directory
*** Reached end of trace for Core: 0 Repeating trace: ./tracefiles/10.trace.xz
xz: ./tracefiles/10.trace.xz: No such file or directory
*** Reached end of trace for Core: 0 Repeating trace: ./tracefiles/10.trace.xz
xz: ./tracefiles/10.trace.xz: No such file or directory
*** Reached end of trace for Core: 0 Repeating trace: ./tracefiles/10.trace.xz
xz: ./tracefiles/10.trace.xz: No such file or directory
*** Reached end of trace for Core: 0 Repeating trace: ./tracefiles/10.trace.xz
xz: ./tracefiles/10.trace.xz: No such file or directory
*** Reached end of trace for Core: 0 Repeating trace: ./tracefiles/10.trace.xz
xz: ./tracefiles/10.trace.xz: No such file or directory
*** Reached end of trace for Core: 0 Repeating trace: ./tracefiles/10.trace.xz
xz: ./tracefiles/10.trace.xz: No such file or directory
*** Reached end of trace for Core: 0 Repeating trace: ./tracefiles/10.trace.xz
xz: ./tracefiles/10.trace.xz: No such file or directory
*** Reached end of trace for Core: 0 Repeating trace: ./tracefiles/10.trace.xz
xz: ./tracefiles/10.trace.xz: No such file or directory
*** Reached end of trace for Core: 0 Repeating trace: ./tracefiles/10.trace.xz
xz: ./tracefiles/10.trace.xz: No such file or directory
*** Reached end of trace for Core: 0 Repeating trace: ./tracefiles/10.trace.xz
xz: ./tracefiles/10.trace.xz: No such file or directory
*** Reached end of trace for Core: 0 Repeating trace: ./tracefiles/10.trace.xz
xz: ./tracefiles/10.trace.xz: No such file or directory
*** Reached end of trace for Core: 0 Repeating trace: ./tracefiles/10.trace.xz
xz: ./tracefiles/10.trace.xz: No such file or directory
*** Reached end of trace for Core: 0 Repeating trace: ./tracefiles/10.trace.xz
xz: ./tracefiles/10.trace.xz: No such file or directory
*** Reached end of trace for Core: 0 Repeating trace: ./tracefiles/10.trace.xz
xz: ./tracefiles/10.trace.xz: No such file or directory
*** Reached end of trace for Core: 0 Repeating trace: ./tracefiles/10.trace.xz
xz: ./tracefiles/10.trace.xz: No such file or directory
*** Reached end of trace for Core: 0 Repeating trace: ./tracefiles/10.trace.xz
xz: ./tracefiles/10.trace.xz: No such file or directory
*** Reached end of trace for Core: 0 Repeating trace: ./tracefiles/10.trace.xz
xz: ./tracefiles/10.trace.xz: No such file or directory
*** Reached end of trace for Core: 0 Repeating trace: ./tracefiles/10.trace.xz
xz: ./tracefiles/10.trace.xz: No such file or directory
*** Reached end of trace for Core: 0 Repeating trace: ./tracefiles/10.trace.xz
xz: ./tracefiles/10.trace.xz: No such file or directory
*** Reached end of trace for Core: 0 Repeating trace: ./tracefiles/10.trace.xz
xz: ./tracefiles/10.trace.xz: No such file or directory
*** Reached end of trace for Core: 0 Repeating trace: ./tracefiles/10.trace.xz
xz: ./tracefiles/10.trace.xz: No such file or directory
*** Reached end of trace for Core: 0 Repeating trace: ./tracefiles/10.trace.xz
xz: ./tracefiles/10.trace.xz: No such file or directory
*** Reached end of trace for Core: 0 Repeating trace: ./tracefiles/10.trace.xz
xz: ./tracefiles/10.trace.xz: No such file or directory
*** Reached end of trace for Core: 0 Repeating trace: ./tracefiles/10.trace.xz
xz: ./tracefiles/10.trace.xz: No such file or directory
*** Reached end of trace for Core: 0 Repeating trace: ./tracefiles/10.trace.xz
xz: ./tracefiles/10.trace.xz: No such file or directory
*** Reached end of trace for Core: 0 Repeating trace: ./tracefiles/10.trace.xz
xz: ./tracefiles/10.trace.xz: No such file or directory
*** Reached end of trace for Core: 0 Repeating trace: ./tracefiles/10.trace.xz
xz: ./tracefiles/10.trace.xz: No such file or directory
*** Reached end of trace for Core: 0 Repeating trace: ./tracefiles/10.trace.xz
xz: ./tracefiles/10.trace.xz: No such file or directory
*** Reached end of trace for Core: 0 Repeating trace: ./tracefiles/10.trace.xz
xz: ./tracefiles/10.trace.xz: No such file or directory
*** Reached end of trace for Core: 0 Repeating trace: ./tracefiles/10.trace.xz
xz: ./tracefiles/10.trace.xz: No such file or directory
*** Reached end of trace for Core: 0 Repeating trace: ./tracefiles/10.trace.xz
xz: ./tracefiles/10.trace.xz: No such file or directory
*** Reached end of trace for Core: 0 Repeating trace: ./tracefiles/10.trace.xz
xz: ./tracefiles/10.trace.xz: No such file or directory
*** Reached end of trace for Core: 0 Repeating trace: ./tracefiles/10.trace.xz
xz: ./tracefiles/10.trace.xz: No such file or directory
*** Reached end of trace for Core: 0 Repeating trace: ./tracefiles/10.trace.xz
xz: ./tracefiles/10.trace.xz: No such file or directory
*** Reached end of trace for Core: 0 Repeating trace: ./tracefiles/10.trace.xz
xz: ./tracefiles/10.trace.xz: No such file or directory
*** Reached end of trace for Core: 0 Repeating trace: ./tracefiles/10.trace.xz
xz: ./tracefiles/10.trace.xz: No such file or directory
*** Reached end of trace for Core: 0 Repeating trace: ./tracefiles/10.trace.xz
xz: ./tracefiles/10.trace.xz: No such file or directory
*** Reached end of trace for Core: 0 Repeating trace: ./tracefiles/10.trace.xz
xz: ./tracefiles/10.trace.xz: No such file or directory
*** Reached end of trace for Core: 0 Repeating trace: ./tracefiles/10.trace.xz
xz: ./tracefiles/10.trace.xz: No such file or directory
*** Reached end of trace for Core: 0 Repeating trace: ./tracefiles/10.trace.xz
xz: ./tracefiles/10.trace.xz: No such file or directory
*** Reached end of trace for Core: 0 Repeating trace: ./tracefiles/10.trace.xz
xz: ./tracefiles/10.trace.xz: No such file or directory
*** Reached end of trace for Core: 0 Repeating trace: ./tracefiles/10.trace.xz
xz: ./tracefiles/10.trace.xz: No such file or directory
*** Reached end of trace for Core: 0 Repeating trace: ./tracefiles/10.trace.xz
xz: ./tracefiles/10.trace.xz: No such file or directory
*** Reached end of trace for Core: 0 Repeating trace: ./tracefiles/10.trace.xz
xz: ./tracefiles/10.trace.xz: No such file or directory
*** Reached end of trace for Core: 0 Repeating trace: ./tracefiles/10.trace.xz
xz: ./tracefiles/10.trace.xz: No such file or directory
*** Reached end of trace for Core: 0 Repeating trace: ./tracefiles/10.trace.xz
xz: ./tracefiles/10.trace.xz: No such file or directory
*** Reached end of trace for Core: 0 Repeating trace: ./tracefiles/10.trace.xz
xz: ./tracefiles/10.trace.xz: No such file or directory
*** Reached end of trace for Core: 0 Repeating trace: ./tracefiles/10.trace.xz
xz: ./tracefiles/10.trace.xz: No such file or directory
*** Reached end of trace for Core: 0 Repeating trace: ./tracefiles/10.trace.xz
xz: ./tracefiles/10.trace.xz: No such file or directory
*** Reached end of trace for Core: 0 Repeating trace: ./tracefiles/10.trace.xz
xz: ./tracefiles/10.trace.xz: No such file or directory
*** Reached end of trace for Core: 0 Repeating trace: ./tracefiles/10.trace.xz
xz: ./tracefiles/10.trace.xz: No such file or directory
*** Reached end of trace for Core: 0 Repeating trace: ./tracefiles/10.trace.xz
xz: ./tracefiles/10.trace.xz: No such file or directory
*** Reached end of trace for Core: 0 Repeating trace: ./tracefiles/10.trace.xz
xz: ./tracefiles/10.trace.xz: No such file or directory
*** Reached end of trace for Core: 0 Repeating trace: ./tracefiles/10.trace.xz
xz: ./tracefiles/10.trace.xz: No such file or directory
*** Reached end of trace for Core: 0 Repeating trace: ./tracefiles/10.trace.xz
xz: ./tracefiles/10.trace.xz: No such file or directory
*** Reached end of trace for Core: 0 Repeating trace: ./tracefiles/10.trace.xz
xz: ./tracefiles/10.trace.xz: No such file or directory
*** Reached end of trace for Core: 0 Repeating trace: ./tracefiles/10.trace.xz
xz: ./tracefiles/10.trace.xz: No such file or directory
*** Reached end of trace for Core: 0 Repeating trace: ./tracefiles/10.trace.xz
xz: ./tracefiles/10.trace.xz: No such file or directory
*** Reached end of trace for Core: 0 Repeating trace: ./tracefiles/10.trace.xz
xz: ./tracefiles/10.trace.xz: No such file or directory
*** Reached end of trace for Core: 0 Repeating trace: ./tracefiles/10.trace.xz
xz: ./tracefiles/10.trace.xz: No such file or directory
*** Reached end of trace for Core: 0 Repeating trace: ./tracefiles/10.trace.xz
xz: ./tracefiles/10.trace.xz: No such file or directory
*** Reached end of trace for Core: 0 Repeating trace: ./tracefiles/10.trace.xz
xz: ./tracefiles/10.trace.xz: No such file or directory
*** Reached end of trace for Core: 0 Repeating trace: ./tracefiles/10.trace.xz
xz: ./tracefiles/10.trace.xz: No such file or directory
*** Reached end of trace for Core: 0 Repeating trace: ./tracefiles/10.trace.xz
xz: ./tracefiles/10.trace.xz: No such file or directory
*** Reached end of trace for Core: 0 Repeating trace: ./tracefiles/10.trace.xz
xz: ./tracefiles/10.trace.xz: No such file or directory
*** Reached end of trace for Core: 0 Repeating trace: ./tracefiles/10.trace.xz
xz: ./tracefiles/10.trace.xz: No such file or directory
*** Reached end of trace for Core: 0 Repeating trace: ./tracefiles/10.trace.xz
xz: ./tracefiles/10.trace.xz: No such file or directory
*** Reached end of trace for Core: 0 Repeating trace: ./tracefiles/10.trace.xz
xz: ./tracefiles/10.trace.xz: No such file or directory
*** Reached end of trace for Core: 0 Repeating trace: ./tracefiles/10.trace.xz
xz: ./tracefiles/10.trace.xz: No such file or directory
*** Reached end of trace for Core: 0 Repeating trace: ./tracefiles/10.trace.xz
xz: ./tracefiles/10.trace.xz: No such file or directory
*** Reached end of trace for Core: 0 Repeating trace: ./tracefiles/10.trace.xz
xz: ./tracefiles/10.trace.xz: No such file or directory
*** Reached end of trace for Core: 0 Repeating trace: ./tracefiles/10.trace.xz
xz: ./tracefiles/10.trace.xz: No such file or directory
*** Reached end of trace for Core: 0 Repeating trace: ./tracefiles/10.trace.xz
xz: ./tracefiles/10.trace.xz: No such file or directory
*** Reached end of trace for Core: 0 Repeating trace: ./tracefiles/10.trace.xz
xz: ./tracefiles/10.trace.xz: No such file or directory
*** Reached end of trace for Core: 0 Repeating trace: ./tracefiles/10.trace.xz
xz: ./tracefiles/10.trace.xz: No such file or directory
*** Reached end of trace for Core: 0 Repeating trace: ./tracefiles/10.trace.xz
xz: ./tracefiles/10.trace.xz: No such file or directory
*** Reached end of trace for Core: 0 Repeating trace: ./tracefiles/10.trace.xz
xz: ./tracefiles/10.trace.xz: No such file or directory
*** Reached end of trace for Core: 0 Repeating trace: ./tracefiles/10.trace.xz
xz: ./tracefiles/10.trace.xz: No such file or directory
*** Reached end of trace for Core: 0 Repeating trace: ./tracefiles/10.trace.xz
xz: ./tracefiles/10.trace.xz: No such file or directory
*** Reached end of trace for Core: 0 Repeating trace: ./tracefiles/10.trace.xz
xz: ./tracefiles/10.trace.xz: No such file or directory
*** Reached end of trace for Core: 0 Repeating trace: ./tracefiles/10.trace.xz
xz: ./tracefiles/10.trace.xz: No such file or directory
*** Reached end of trace for Core: 0 Repeating trace: ./tracefiles/10.trace.xz
xz: ./tracefiles/10.trace.xz: No such file or directory
*** Reached end of trace for Core: 0 Repeating trace: ./tracefiles/10.trace.xz
xz: ./tracefiles/10.trace.xz: No such file or directory
*** Reached end of trace for Core: 0 Repeating trace: ./tracefiles/10.trace.xz
xz: ./tracefiles/10.trace.xz: No such file or directory
*** Reached end of trace for Core: 0 Repeating trace: ./tracefiles/10.trace.xz
xz: ./tracefiles/10.trace.xz: No such file or directory
*** Reached end of trace for Core: 0 Repeating trace: ./tracefiles/10.trace.xz
xz: ./tracefiles/10.trace.xz: No such file or directory
*** Reached end of trace for Core: 0 Repeating trace: ./tracefiles/10.trace.xz
xz: ./tracefiles/10.trace.xz: No such file or directory
*** Reached end of trace for Core: 0 Repeating trace: ./tracefiles/10.trace.xz
xz: ./tracefiles/10.trace.xz: No such file or directory
*** Reached end of trace for Core: 0 Repeating trace: ./tracefiles/10.trace.xz
xz: ./tracefiles/10.trace.xz: No such file or directory
*** Reached end of trace for Core: 0 Repeating trace: ./tracefiles/10.trace.xz
xz: ./tracefiles/10.trace.xz: No such file or directory
*** Reached end of trace for Core: 0 Repeating trace: ./tracefiles/10.trace.xz
xz: ./tracefiles/10.trace.xz: No such file or directory
*** Reached end of trace for Core: 0 Repeating trace: ./tracefiles/10.trace.xz
xz: ./tracefiles/10.trace.xz: No such file or directory
*** Reached end of trace for Core: 0 Repeating trace: ./tracefiles/10.trace.xz
xz: ./tracefiles/10.trace.xz: No such file or directory
*** Reached end of trace for Core: 0 Repeating trace: ./tracefiles/10.trace.xz
xz: ./tracefiles/10.trace.xz: No such file or directory
*** Reached end of trace for Core: 0 Repeating trace: ./tracefiles/10.trace.xz
xz: ./tracefiles/10.trace.xz: No such file or directory
*** Reached end of trace for Core: 0 Repeating trace: ./tracefiles/10.trace.xz
xz: ./tracefiles/10.trace.xz: No such file or directory
*** Reached end of trace for Core: 0 Repeating trace: ./tracefiles/10.trace.xz
xz: ./tracefiles/10.trace.xz: No such file or directory
*** Reached end of trace for Core: 0 Repeating trace: ./tracefiles/10.trace.xz
xz: ./tracefiles/10.trace.xz: No such file or directory
*** Reached end of trace for Core: 0 Repeating trace: ./tracefiles/10.trace.xz
xz: ./tracefiles/10.trace.xz: No such file or directory
*** Reached end of trace for Core: 0 Repeating trace: ./tracefiles/10.trace.xz
xz: ./tracefiles/10.trace.xz: No such file or directory
*** Reached end of trace for Core: 0 Repeating trace: ./tracefiles/10.trace.xz
xz: ./tracefiles/10.trace.xz: No such file or directory
*** Reached end of trace for Core: 0 Repeating trace: ./tracefiles/10.trace.xz
xz: ./tracefiles/10.trace.xz: No such file or directory
*** Reached end of trace for Core: 0 Repeating trace: ./tracefiles/10.trace.xz
xz: ./tracefiles/10.trace.xz: No such file or directory
*** Reached end of trace for Core: 0 Repeating trace: ./tracefiles/10.trace.xz
xz: ./tracefiles/10.trace.xz: No such file or directory
*** Reached end of trace for Core: 0 Repeating trace: ./tracefiles/10.trace.xz
xz: ./tracefiles/10.trace.xz: No such file or directory
*** Reached end of trace for Core: 0 Repeating trace: ./tracefiles/10.trace.xz
xz: ./tracefiles/10.trace.xz: No such file or directory
*** Reached end of trace for Core: 0 Repeating trace: ./tracefiles/10.trace.xz
xz: ./tracefiles/10.trace.xz: No such file or directory
*** Reached end of trace for Core: 0 Repeating trace: ./tracefiles/10.trace.xz
xz: ./tracefiles/10.trace.xz: No such file or directory
*** Reached end of trace for Core: 0 Repeating trace: ./tracefiles/10.trace.xz
xz: ./tracefiles/10.trace.xz: No such file or directory
*** Reached end of trace for Core: 0 Repeating trace: ./tracefiles/10.trace.xz
xz: ./tracefiles/10.trace.xz: No such file or directory
*** Reached end of trace for Core: 0 Repeating trace: ./tracefiles/10.trace.xz
xz: ./tracefiles/10.trace.xz: No such file or directory
*** Reached end of trace for Core: 0 Repeating trace: ./tracefiles/10.trace.xz
xz: ./tracefiles/10.trace.xz: No such file or directory
*** Reached end of trace for Core: 0 Repeating trace: ./tracefiles/10.trace.xz
xz: ./tracefiles/10.trace.xz: No such file or directory
*** Reached end of trace for Core: 0 Repeating trace: ./tracefiles/10.trace.xz
xz: ./tracefiles/10.trace.xz: No such file or directory
*** Reached end of trace for Core: 0 Repeating trace: ./tracefiles/10.trace.xz
xz: ./tracefiles/10.trace.xz: No such file or directory
*** Reached end of trace for Core: 0 Repeating trace: ./tracefiles/10.trace.xz
xz: ./tracefiles/10.trace.xz: No such file or directory
*** Reached end of trace for Core: 0 Repeating trace: ./tracefiles/10.trace.xz
xz: ./tracefiles/10.trace.xz: No such file or directory
*** Reached end of trace for Core: 0 Repeating trace: ./tracefiles/10.trace.xz
xz: ./tracefiles/10.trace.xz: No such file or directory
*** Reached end of trace for Core: 0 Repeating trace: ./tracefiles/10.trace.xz
xz: ./tracefiles/10.trace.xz: No such file or directory
*** Reached end of trace for Core: 0 Repeating trace: ./tracefiles/10.trace.xz
xz: ./tracefiles/10.trace.xz: No such file or directory
*** Reached end of trace for Core: 0 Repeating trace: ./tracefiles/10.trace.xz
xz: ./tracefiles/10.trace.xz: No such file or directory
*** Reached end of trace for Core: 0 Repeating trace: ./tracefiles/10.trace.xz
xz: ./tracefiles/10.trace.xz: No such file or directory
*** Reached end of trace for Core: 0 Repeating trace: ./tracefiles/10.trace.xz
xz: ./tracefiles/10.trace.xz: No such file or directory
*** Reached end of trace for Core: 0 Repeating trace: ./tracefiles/10.trace.xz
xz: ./tracefiles/10.trace.xz: No such file or directory
*** Reached end of trace for Core: 0 Repeating trace: ./tracefiles/10.trace.xz
xz: ./tracefiles/10.trace.xz: No such file or directory
*** Reached end of trace for Core: 0 Repeating trace: ./tracefiles/10.trace.xz
xz: ./tracefiles/10.trace.xz: No such file or directory
*** Reached end of trace for Core: 0 Repeating trace: ./tracefiles/10.trace.xz
xz: ./tracefiles/10.trace.xz: No such file or directory
*** Reached end of trace for Core: 0 Repeating trace: ./tracefiles/10.trace.xz
xz: ./tracefiles/10.trace.xz: No such file or directory
*** Reached end of trace for Core: 0 Repeating trace: ./tracefiles/10.trace.xz
xz: ./tracefiles/10.trace.xz: No such file or directory
*** Reached end of trace for Core: 0 Repeating trace: ./tracefiles/10.trace.xz
xz: ./tracefiles/10.trace.xz: No such file or directory
*** Reached end of trace for Core: 0 Repeating trace: ./tracefiles/10.trace.xz
xz: ./tracefiles/10.trace.xz: No such file or directory
*** Reached end of trace for Core: 0 Repeating trace: ./tracefiles/10.trace.xz
xz: ./tracefiles/10.trace.xz: No such file or directory
*** Reached end of trace for Core: 0 Repeating trace: ./tracefiles/10.trace.xz
xz: ./tracefiles/10.trace.xz: No such file or directory
*** Reached end of trace for Core: 0 Repeating trace: ./tracefiles/10.trace.xz
xz: ./tracefiles/10.trace.xz: No such file or directory
*** Reached end of trace for Core: 0 Repeating trace: ./tracefiles/10.trace.xz
xz: ./tracefiles/10.trace.xz: No such file or directory
*** Reached end of trace for Core: 0 Repeating trace: ./tracefiles/10.trace.xz
xz: ./tracefiles/10.trace.xz: No such file or directory
*** Reached end of trace for Core: 0 Repeating trace: ./tracefiles/10.trace.xz
xz: ./tracefiles/10.trace.xz: No such file or directory
*** Reached end of trace for Core: 0 Repeating trace: ./tracefiles/10.trace.xz
xz: ./tracefiles/10.trace.xz: No such file or directory
*** Reached end of trace for Core: 0 Repeating trace: ./tracefiles/10.trace.xz
xz: ./tracefiles/10.trace.xz: No such file or directory
*** Reached end of trace for Core: 0 Repeating trace: ./tracefiles/10.trace.xz
xz: ./tracefiles/10.trace.xz: No such file or directory
*** Reached end of trace for Core: 0 Repeating trace: ./tracefiles/10.trace.xz
xz: ./tracefiles/10.trace.xz: No such file or directory
*** Reached end of trace for Core: 0 Repeating trace: ./tracefiles/10.trace.xz
xz: ./tracefiles/10.trace.xz: No such file or directory
*** Reached end of trace for Core: 0 Repeating trace: ./tracefiles/10.trace.xz
xz: ./tracefiles/10.trace.xz: No such file or directory
*** Reached end of trace for Core: 0 Repeating trace: ./tracefiles/10.trace.xz
xz: ./tracefiles/10.trace.xz: No such file or directory
*** Reached end of trace for Core: 0 Repeating trace: ./tracefiles/10.trace.xz
xz: ./tracefiles/10.trace.xz: No such file or directory
*** Reached end of trace for Core: 0 Repeating trace: ./tracefiles/10.trace.xz
xz: ./tracefiles/10.trace.xz: No such file or directory
*** Reached end of trace for Core: 0 Repeating trace: ./tracefiles/10.trace.xz
xz: ./tracefiles/10.trace.xz: No such file or directory
*** Reached end of trace for Core: 0 Repeating trace: ./tracefiles/10.trace.xz
xz: ./tracefiles/10.trace.xz: No such file or directory
*** Reached end of trace for Core: 0 Repeating trace: ./tracefiles/10.trace.xz
xz: ./tracefiles/10.trace.xz: No such file or directory
*** Reached end of trace for Core: 0 Repeating trace: ./tracefiles/10.trace.xz
xz: ./tracefiles/10.trace.xz: No such file or directory
*** Reached end of trace for Core: 0 Repeating trace: ./tracefiles/10.trace.xz
xz: ./tracefiles/10.trace.xz: No such file or directory
*** Reached end of trace for Core: 0 Repeating trace: ./tracefiles/10.trace.xz
xz: ./tracefiles/10.trace.xz: No such file or directory
*** Reached end of trace for Core: 0 Repeating trace: ./tracefiles/10.trace.xz
xz: ./tracefiles/10.trace.xz: No such file or directory
*** Reached end of trace for Core: 0 Repeating trace: ./tracefiles/10.trace.xz
xz: ./tracefiles/10.trace.xz: No such file or directory
*** Reached end of trace for Core: 0 Repeating trace: ./tracefiles/10.trace.xz
xz: ./tracefiles/10.trace.xz: No such file or directory
*** Reached end of trace for Core: 0 Repeating trace: ./tracefiles/10.trace.xz
xz: ./tracefiles/10.trace.xz: No such file or directory
*** Reached end of trace for Core: 0 Repeating trace: ./tracefiles/10.trace.xz
xz: ./tracefiles/10.trace.xz: No such file or directory
*** Reached end of trace for Core: 0 Repeating trace: ./tracefiles/10.trace.xz
xz: ./tracefiles/10.trace.xz: No such file or directory
*** Reached end of trace for Core: 0 Repeating trace: ./tracefiles/10.trace.xz
xz: ./tracefiles/10.trace.xz: No such file or directory
*** Reached end of trace for Core: 0 Repeating trace: ./tracefiles/10.trace.xz
xz: ./tracefiles/10.trace.xz: No such file or directory
*** Reached end of trace for Core: 0 Repeating trace: ./tracefiles/10.trace.xz
xz: ./tracefiles/10.trace.xz: No such file or directory
*** Reached end of trace for Core: 0 Repeating trace: ./tracefiles/10.trace.xz
xz: ./tracefiles/10.trace.xz: No such file or directory
*** Reached end of trace for Core: 0 Repeating trace: ./tracefiles/10.trace.xz
xz: ./tracefiles/10.trace.xz: No such file or directory
*** Reached end of trace for Core: 0 Repeating trace: ./tracefiles/10.trace.xz
xz: ./tracefiles/10.trace.xz: No such file or directory
*** Reached end of trace for Core: 0 Repeating trace: ./tracefiles/10.trace.xz
xz: ./tracefiles/10.trace.xz: No such file or directory
*** Reached end of trace for Core: 0 Repeating trace: ./tracefiles/10.trace.xz
xz: ./tracefiles/10.trace.xz: No such file or directory
*** Reached end of trace for Core: 0 Repeating trace: ./tracefiles/10.trace.xz
xz: ./tracefiles/10.trace.xz: No such file or directory
*** Reached end of trace for Core: 0 Repeating trace: ./tracefiles/10.trace.xz
xz: ./tracefiles/10.trace.xz: No such file or directory
*** Reached end of trace for Core: 0 Repeating trace: ./tracefiles/10.trace.xz
xz: ./tracefiles/10.trace.xz: No such file or directory
*** Reached end of trace for Core: 0 Repeating trace: ./tracefiles/10.trace.xz
xz: ./tracefiles/10.trace.xz: No such file or directory
*** Reached end of trace for Core: 0 Repeating trace: ./tracefiles/10.trace.xz
xz: ./tracefiles/10.trace.xz: No such file or directory
*** Reached end of trace for Core: 0 Repeating trace: ./tracefiles/10.trace.xz
xz: ./tracefiles/10.trace.xz: No such file or directory
*** Reached end of trace for Core: 0 Repeating trace: ./tracefiles/10.trace.xz
xz: ./tracefiles/10.trace.xz: No such file or directory
*** Reached end of trace for Core: 0 Repeating trace: ./tracefiles/10.trace.xz
xz: ./tracefiles/10.trace.xz: No such file or directory
*** Reached end of trace for Core: 0 Repeating trace: ./tracefiles/10.trace.xz
xz: ./tracefiles/10.trace.xz: No such file or directory
*** Reached end of trace for Core: 0 Repeating trace: ./tracefiles/10.trace.xz
xz: ./tracefiles/10.trace.xz: No such file or directory
*** Reached end of trace for Core: 0 Repeating trace: ./tracefiles/10.trace.xz
xz: ./tracefiles/10.trace.xz: No such file or directory
*** Reached end of trace for Core: 0 Repeating trace: ./tracefiles/10.trace.xz
xz: ./tracefiles/10.trace.xz: No such file or directory
*** Reached end of trace for Core: 0 Repeating trace: ./tracefiles/10.trace.xz
xz: ./tracefiles/10.trace.xz: No such file or directory
*** Reached end of trace for Core: 0 Repeating trace: ./tracefiles/10.trace.xz
xz: ./tracefiles/10.trace.xz: No such file or directory
*** Reached end of trace for Core: 0 Repeating trace: ./tracefiles/10.trace.xz
xz: ./tracefiles/10.trace.xz: No such file or directory
*** Reached end of trace for Core: 0 Repeating trace: ./tracefiles/10.trace.xz
xz: ./tracefiles/10.trace.xz: No such file or directory
*** Reached end of trace for Core: 0 Repeating trace: ./tracefiles/10.trace.xz
xz: ./tracefiles/10.trace.xz: No such file or directory
*** Reached end of trace for Core: 0 Repeating trace: ./tracefiles/10.trace.xz
xz: ./tracefiles/10.trace.xz: No such file or directory
*** Reached end of trace for Core: 0 Repeating trace: ./tracefiles/10.trace.xz
xz: ./tracefiles/10.trace.xz: No such file or directory
*** Reached end of trace for Core: 0 Repeating trace: ./tracefiles/10.trace.xz
xz: ./tracefiles/10.trace.xz: No such file or directory
*** Reached end of trace for Core: 0 Repeating trace: ./tracefiles/10.trace.xz
xz: ./tracefiles/10.trace.xz: No such file or directory
*** Reached end of trace for Core: 0 Repeating trace: ./tracefiles/10.trace.xz
xz: ./tracefiles/10.trace.xz: No such file or directory
*** Reached end of trace for Core: 0 Repeating trace: ./tracefiles/10.trace.xz
xz: ./tracefiles/10.trace.xz: No such file or directory
*** Reached end of trace for Core: 0 Repeating trace: ./tracefiles/10.trace.xz
xz: ./tracefiles/10.trace.xz: No such file or directory
*** Reached end of trace for Core: 0 Repeating trace: ./tracefiles/10.trace.xz
xz: ./tracefiles/10.trace.xz: No such file or directory
*** Reached end of trace for Core: 0 Repeating trace: ./tracefiles/10.trace.xz
xz: ./tracefiles/10.trace.xz: No such file or directory
*** Reached end of trace for Core: 0 Repeating trace: ./tracefiles/10.trace.xz
xz: ./tracefiles/10.trace.xz: No such file or directory
*** Reached end of trace for Core: 0 Repeating trace: ./tracefiles/10.trace.xz
xz: ./tracefiles/10.trace.xz: No such file or directory
*** Reached end of trace for Core: 0 Repeating trace: ./tracefiles/10.trace.xz
xz: ./tracefiles/10.trace.xz: No such file or directory
*** Reached end of trace for Core: 0 Repeating trace: ./tracefiles/10.trace.xz
xz: ./tracefiles/10.trace.xz: No such file or directory
*** Reached end of trace for Core: 0 Repeating trace: ./tracefiles/10.trace.xz
xz: ./tracefiles/10.trace.xz: No such file or directory
*** Reached end of trace for Core: 0 Repeating trace: ./tracefiles/10.trace.xz
xz: ./tracefiles/10.trace.xz: No such file or directory
*** Reached end of trace for Core: 0 Repeating trace: ./tracefiles/10.trace.xz
xz: ./tracefiles/10.trace.xz: No such file or directory
*** Reached end of trace for Core: 0 Repeating trace: ./tracefiles/10.trace.xz
xz: ./tracefiles/10.trace.xz: No such file or directory
*** Reached end of trace for Core: 0 Repeating trace: ./tracefiles/10.trace.xz
xz: ./tracefiles/10.trace.xz: No such file or directory
*** Reached end of trace for Core: 0 Repeating trace: ./tracefiles/10.trace.xz
xz: ./tracefiles/10.trace.xz: No such file or directory
*** Reached end of trace for Core: 0 Repeating trace: ./tracefiles/10.trace.xz
xz: ./tracefiles/10.trace.xz: No such file or directory
*** Reached end of trace for Core: 0 Repeating trace: ./tracefiles/10.trace.xz
xz: ./tracefiles/10.trace.xz: No such file or directory
*** Reached end of trace for Core: 0 Repeating trace: ./tracefiles/10.trace.xz
xz: ./tracefiles/10.trace.xz: No such file or directory
*** Reached end of trace for Core: 0 Repeating trace: ./tracefiles/10.trace.xz
xz: ./tracefiles/10.trace.xz: No such file or directory
*** Reached end of trace for Core: 0 Repeating trace: ./tracefiles/10.trace.xz
xz: ./tracefiles/10.trace.xz: No such file or directory
*** Reached end of trace for Core: 0 Repeating trace: ./tracefiles/10.trace.xz
xz: ./tracefiles/10.trace.xz: No such file or directory
*** Reached end of trace for Core: 0 Repeating trace: ./tracefiles/10.trace.xz
xz: ./tracefiles/10.trace.xz: No such file or directory
*** Reached end of trace for Core: 0 Repeating trace: ./tracefiles/10.trace.xz
xz: ./tracefiles/10.trace.xz: No such file or directory
*** Reached end of trace for Core: 0 Repeating trace: ./tracefiles/10.trace.xz
xz: ./tracefiles/10.trace.xz: No such file or directory
*** Reached end of trace for Core: 0 Repeating trace: ./tracefiles/10.trace.xz
xz: ./tracefiles/10.trace.xz: No such file or directory
*** Reached end of trace for Core: 0 Repeating trace: ./tracefiles/10.trace.xz
xz: ./tracefiles/10.trace.xz: No such file or directory
*** Reached end of trace for Core: 0 Repeating trace: ./tracefiles/10.trace.xz
xz: ./tracefiles/10.trace.xz: No such file or directory
*** Reached end of trace for Core: 0 Repeating trace: ./tracefiles/10.trace.xz
xz: ./tracefiles/10.trace.xz: No such file or directory
*** Reached end of trace for Core: 0 Repeating trace: ./tracefiles/10.trace.xz
xz: ./tracefiles/10.trace.xz: No such file or directory
*** Reached end of trace for Core: 0 Repeating trace: ./tracefiles/10.trace.xz
xz: ./tracefiles/10.trace.xz: No such file or directory
*** Reached end of trace for Core: 0 Repeating trace: ./tracefiles/10.trace.xz
xz: ./tracefiles/10.trace.xz: No such file or directory
*** Reached end of trace for Core: 0 Repeating trace: ./tracefiles/10.trace.xz
xz: ./tracefiles/10.trace.xz: No such file or directory
*** Reached end of trace for Core: 0 Repeating trace: ./tracefiles/10.trace.xz
xz: ./tracefiles/10.trace.xz: No such file or directory
*** Reached end of trace for Core: 0 Repeating trace: ./tracefiles/10.trace.xz
xz: ./tracefiles/10.trace.xz: No such file or directory
*** Reached end of trace for Core: 0 Repeating trace: ./tracefiles/10.trace.xz
xz: ./tracefiles/10.trace.xz: No such file or directory
*** Reached end of trace for Core: 0 Repeating trace: ./tracefiles/10.trace.xz
xz: ./tracefiles/10.trace.xz: No such file or directory
*** Reached end of trace for Core: 0 Repeating trace: ./tracefiles/10.trace.xz
xz: ./tracefiles/10.trace.xz: No such file or directory
*** Reached end of trace for Core: 0 Repeating trace: ./tracefiles/10.trace.xz
xz: ./tracefiles/10.trace.xz: No such file or directory
*** Reached end of trace for Core: 0 Repeating trace: ./tracefiles/10.trace.xz
xz: ./tracefiles/10.trace.xz: No such file or directory
*** Reached end of trace for Core: 0 Repeating trace: ./tracefiles/10.trace.xz
xz: ./tracefiles/10.trace.xz: No such file or directory
*** Reached end of trace for Core: 0 Repeating trace: ./tracefiles/10.trace.xz
xz: ./tracefiles/10.trace.xz: No such file or directory
*** Reached end of trace for Core: 0 Repeating trace: ./tracefiles/10.trace.xz
xz: ./tracefiles/10.trace.xz: No such file or directory
*** Reached end of trace for Core: 0 Repeating trace: ./tracefiles/10.trace.xz
xz: ./tracefiles/10.trace.xz: No such file or directory
*** Reached end of trace for Core: 0 Repeating trace: ./tracefiles/10.trace.xz
xz: ./tracefiles/10.trace.xz: No such file or directory
*** Reached end of trace for Core: 0 Repeating trace: ./tracefiles/10.trace.xz
xz: ./tracefiles/10.trace.xz: No such file or directory
*** Reached end of trace for Core: 0 Repeating trace: ./tracefiles/10.trace.xz
xz: ./tracefiles/10.trace.xz: No such file or directory
*** Reached end of trace for Core: 0 Repeating trace: ./tracefiles/10.trace.xz
xz: ./tracefiles/10.trace.xz: No such file or directory
*** Reached end of trace for Core: 0 Repeating trace: ./tracefiles/10.trace.xz
xz: ./tracefiles/10.trace.xz: No such file or directory
*** Reached end of trace for Core: 0 Repeating trace: ./tracefiles/10.trace.xz
xz: ./tracefiles/10.trace.xz: No such file or directory
*** Reached end of trace for Core: 0 Repeating trace: ./tracefiles/10.trace.xz
xz: ./tracefiles/10.trace.xz: No such file or directory
*** Reached end of trace for Core: 0 Repeating trace: ./tracefiles/10.trace.xz
xz: ./tracefiles/10.trace.xz: No such file or directory
*** Reached end of trace for Core: 0 Repeating trace: ./tracefiles/10.trace.xz
xz: ./tracefiles/10.trace.xz: No such file or directory
*** Reached end of trace for Core: 0 Repeating trace: ./tracefiles/10.trace.xz
xz: ./tracefiles/10.trace.xz: No such file or directory
*** Reached end of trace for Core: 0 Repeating trace: ./tracefiles/10.trace.xz
xz: ./tracefiles/10.trace.xz: No such file or directory
*** Reached end of trace for Core: 0 Repeating trace: ./tracefiles/10.trace.xz
xz: ./tracefiles/10.trace.xz: No such file or directory
*** Reached end of trace for Core: 0 Repeating trace: ./tracefiles/10.trace.xz
xz: ./tracefiles/10.trace.xz: No such file or directory
*** Reached end of trace for Core: 0 Repeating trace: ./tracefiles/10.trace.xz
xz: ./tracefiles/10.trace.xz: No such file or directory
*** Reached end of trace for Core: 0 Repeating trace: ./tracefiles/10.trace.xz
xz: ./tracefiles/10.trace.xz: No such file or directory
*** Reached end of trace for Core: 0 Repeating trace: ./tracefiles/10.trace.xz
xz: ./tracefiles/10.trace.xz: No such file or directory
*** Reached end of trace for Core: 0 Repeating trace: ./tracefiles/10.trace.xz
xz: ./tracefiles/10.trace.xz: No such file or directory
*** Reached end of trace for Core: 0 Repeating trace: ./tracefiles/10.trace.xz
xz: ./tracefiles/10.trace.xz: No such file or directory
*** Reached end of trace for Core: 0 Repeating trace: ./tracefiles/10.trace.xz
xz: ./tracefiles/10.trace.xz: No such file or directory
*** Reached end of trace for Core: 0 Repeating trace: ./tracefiles/10.trace.xz
xz: ./tracefiles/10.trace.xz: No such file or directory
*** Reached end of trace for Core: 0 Repeating trace: ./tracefiles/10.trace.xz
xz: ./tracefiles/10.trace.xz: No such file or directory
*** Reached end of trace for Core: 0 Repeating trace: ./tracefiles/10.trace.xz
xz: ./tracefiles/10.trace.xz: No such file or directory
*** Reached end of trace for Core: 0 Repeating trace: ./tracefiles/10.trace.xz
xz: ./tracefiles/10.trace.xz: No such file or directory
*** Reached end of trace for Core: 0 Repeating trace: ./tracefiles/10.trace.xz
xz: ./tracefiles/10.trace.xz: No such file or directory
*** Reached end of trace for Core: 0 Repeating trace: ./tracefiles/10.trace.xz
xz: ./tracefiles/10.trace.xz: No such file or directory
*** Reached end of trace for Core: 0 Repeating trace: ./tracefiles/10.trace.xz
xz: ./tracefiles/10.trace.xz: No such file or directory
*** Reached end of trace for Core: 0 Repeating trace: ./tracefiles/10.trace.xz
xz: ./tracefiles/10.trace.xz: No such file or directory
*** Reached end of trace for Core: 0 Repeating trace: ./tracefiles/10.trace.xz
xz: ./tracefiles/10.trace.xz: No such file or directory
*** Reached end of trace for Core: 0 Repeating trace: ./tracefiles/10.trace.xz
xz: ./tracefiles/10.trace.xz: No such file or directory
*** Reached end of trace for Core: 0 Repeating trace: ./tracefiles/10.trace.xz
xz: ./tracefiles/10.trace.xz: No such file or directory
*** Reached end of trace for Core: 0 Repeating trace: ./tracefiles/10.trace.xz
xz: ./tracefiles/10.trace.xz: No such file or directory
*** Reached end of trace for Core: 0 Repeating trace: ./tracefiles/10.trace.xz
xz: ./tracefiles/10.trace.xz: No such file or directory
*** Reached end of trace for Core: 0 Repeating trace: ./tracefiles/10.trace.xz
xz: ./tracefiles/10.trace.xz: No such file or directory
*** Reached end of trace for Core: 0 Repeating trace: ./tracefiles/10.trace.xz
xz: ./tracefiles/10.trace.xz: No such file or directory
*** Reached end of trace for Core: 0 Repeating trace: ./tracefiles/10.trace.xz
xz: ./tracefiles/10.trace.xz: No such file or directory
*** Reached end of trace for Core: 0 Repeating trace: ./tracefiles/10.trace.xz
xz: ./tracefiles/10.trace.xz: No such file or directory
*** Reached end of trace for Core: 0 Repeating trace: ./tracefiles/10.trace.xz
xz: ./tracefiles/10.trace.xz: No such file or directory
*** Reached end of trace for Core: 0 Repeating trace: ./tracefiles/10.trace.xz
xz: ./tracefiles/10.trace.xz: No such file or directory
*** Reached end of trace for Core: 0 Repeating trace: ./tracefiles/10.trace.xz
xz: ./tracefiles/10.trace.xz: No such file or directory
*** Reached end of trace for Core: 0 Repeating trace: ./tracefiles/10.trace.xz
xz: ./tracefiles/10.trace.xz: No such file or directory
*** Reached end of trace for Core: 0 Repeating trace: ./tracefiles/10.trace.xz
xz: ./tracefiles/10.trace.xz: No such file or directory
*** Reached end of trace for Core: 0 Repeating trace: ./tracefiles/10.trace.xz
xz: ./tracefiles/10.trace.xz: No such file or directory
*** Reached end of trace for Core: 0 Repeating trace: ./tracefiles/10.trace.xz
xz: ./tracefiles/10.trace.xz: No such file or directory
*** Reached end of trace for Core: 0 Repeating trace: ./tracefiles/10.trace.xz
xz: ./tracefiles/10.trace.xz: No such file or directory
*** Reached end of trace for Core: 0 Repeating trace: ./tracefiles/10.trace.xz
xz: ./tracefiles/10.trace.xz: No such file or directory
*** Reached end of trace for Core: 0 Repeating trace: ./tracefiles/10.trace.xz
xz: ./tracefiles/10.trace.xz: No such file or directory
*** Reached end of trace for Core: 0 Repeating trace: ./tracefiles/10.trace.xz
xz: ./tracefiles/10.trace.xz: No such file or directory
*** Reached end of trace for Core: 0 Repeating trace: ./tracefiles/10.trace.xz
xz: ./tracefiles/10.trace.xz: No such file or directory
*** Reached end of trace for Core: 0 Repeating trace: ./tracefiles/10.trace.xz
xz: ./tracefiles/10.trace.xz: No such file or directory
*** Reached end of trace for Core: 0 Repeating trace: ./tracefiles/10.trace.xz
xz: ./tracefiles/10.trace.xz: No such file or directory
*** Reached end of trace for Core: 0 Repeating trace: ./tracefiles/10.trace.xz
xz: ./tracefiles/10.trace.xz: No such file or directory
*** Reached end of trace for Core: 0 Repeating trace: ./tracefiles/10.trace.xz
xz: ./tracefiles/10.trace.xz: No such file or directory
*** Reached end of trace for Core: 0 Repeating trace: ./tracefiles/10.trace.xz
xz: ./tracefiles/10.trace.xz: No such file or directory
*** Reached end of trace for Core: 0 Repeating trace: ./tracefiles/10.trace.xz
xz: ./tracefiles/10.trace.xz: No such file or directory
*** Reached end of trace for Core: 0 Repeating trace: ./tracefiles/10.trace.xz
xz: ./tracefiles/10.trace.xz: No such file or directory
*** Reached end of trace for Core: 0 Repeating trace: ./tracefiles/10.trace.xz
xz: ./tracefiles/10.trace.xz: No such file or directory
*** Reached end of trace for Core: 0 Repeating trace: ./tracefiles/10.trace.xz
xz: ./tracefiles/10.trace.xz: No such file or directory
*** Reached end of trace for Core: 0 Repeating trace: ./tracefiles/10.trace.xz
xz: ./tracefiles/10.trace.xz: No such file or directory
*** Reached end of trace for Core: 0 Repeating trace: ./tracefiles/10.trace.xz
xz: ./tracefiles/10.trace.xz: No such file or directory
*** Reached end of trace for Core: 0 Repeating trace: ./tracefiles/10.trace.xz
xz: ./tracefiles/10.trace.xz: No such file or directory
*** Reached end of trace for Core: 0 Repeating trace: ./tracefiles/10.trace.xz
xz: ./tracefiles/10.trace.xz: No such file or directory
*** Reached end of trace for Core: 0 Repeating trace: ./tracefiles/10.trace.xz
xz: ./tracefiles/10.trace.xz: No such file or directory
*** Reached end of trace for Core: 0 Repeating trace: ./tracefiles/10.trace.xz
xz: ./tracefiles/10.trace.xz: No such file or directory
*** Reached end of trace for Core: 0 Repeating trace: ./tracefiles/10.trace.xz
xz: ./tracefiles/10.trace.xz: No such file or directory
*** Reached end of trace for Core: 0 Repeating trace: ./tracefiles/10.trace.xz
xz: ./tracefiles/10.trace.xz: No such file or directory
*** Reached end of trace for Core: 0 Repeating trace: ./tracefiles/10.trace.xz
xz: ./tracefiles/10.trace.xz: No such file or directory
*** Reached end of trace for Core: 0 Repeating trace: ./tracefiles/10.trace.xz
xz: ./tracefiles/10.trace.xz: No such file or directory
*** Reached end of trace for Core: 0 Repeating trace: ./tracefiles/10.trace.xz
xz: ./tracefiles/10.trace.xz: No such file or directory
*** Reached end of trace for Core: 0 Repeating trace: ./tracefiles/10.trace.xz
xz: ./tracefiles/10.trace.xz: No such file or directory
*** Reached end of trace for Core: 0 Repeating trace: ./tracefiles/10.trace.xz
xz: ./tracefiles/10.trace.xz: No such file or directory
*** Reached end of trace for Core: 0 Repeating trace: ./tracefiles/10.trace.xz
xz: ./tracefiles/10.trace.xz: No such file or directory
*** Reached end of trace for Core: 0 Repeating trace: ./tracefiles/10.trace.xz
xz: ./tracefiles/10.trace.xz: No such file or directory
*** Reached end of trace for Core: 0 Repeating trace: ./tracefiles/10.trace.xz
xz: ./tracefiles/10.trace.xz: No such file or directory
*** Reached end of trace for Core: 0 Repeating trace: ./tracefiles/10.trace.xz
xz: ./tracefiles/10.trace.xz: No such file or directory
*** Reached end of trace for Core: 0 Repeating trace: ./tracefiles/10.trace.xz
xz: ./tracefiles/10.trace.xz: No such file or directory
*** Reached end of trace for Core: 0 Repeating trace: ./tracefiles/10.trace.xz
xz: ./tracefiles/10.trace.xz: No such file or directory
*** Reached end of trace for Core: 0 Repeating trace: ./tracefiles/10.trace.xz
xz: ./tracefiles/10.trace.xz: No such file or directory
*** Reached end of trace for Core: 0 Repeating trace: ./tracefiles/10.trace.xz
xz: ./tracefiles/10.trace.xz: No such file or directory
*** Reached end of trace for Core: 0 Repeating trace: ./tracefiles/10.trace.xz
xz: ./tracefiles/10.trace.xz: No such file or directory
*** Reached end of trace for Core: 0 Repeating trace: ./tracefiles/10.trace.xz
xz: ./tracefiles/10.trace.xz: No such file or directory
*** Reached end of trace for Core: 0 Repeating trace: ./tracefiles/10.trace.xz
xz: ./tracefiles/10.trace.xz: No such file or directory
*** Reached end of trace for Core: 0 Repeating trace: ./tracefiles/10.trace.xz
xz: ./tracefiles/10.trace.xz: No such file or directory
*** Reached end of trace for Core: 0 Repeating trace: ./tracefiles/10.trace.xz
xz: ./tracefiles/10.trace.xz: No such file or directory
*** Reached end of trace for Core: 0 Repeating trace: ./tracefiles/10.trace.xz
xz: ./tracefiles/10.trace.xz: No such file or directory
*** Reached end of trace for Core: 0 Repeating trace: ./tracefiles/10.trace.xz
xz: ./tracefiles/10.trace.xz: No such file or directory
*** Reached end of trace for Core: 0 Repeating trace: ./tracefiles/10.trace.xz
xz: ./tracefiles/10.trace.xz: No such file or directory
*** Reached end of trace for Core: 0 Repeating trace: ./tracefiles/10.trace.xz
xz: ./tracefiles/10.trace.xz: No such file or directory
*** Reached end of trace for Core: 0 Repeating trace: ./tracefiles/10.trace.xz
xz: ./tracefiles/10.trace.xz: No such file or directory
*** Reached end of trace for Core: 0 Repeating trace: ./tracefiles/10.trace.xz
xz: ./tracefiles/10.trace.xz: No such file or directory
*** Reached end of trace for Core: 0 Repeating trace: ./tracefiles/10.trace.xz
xz: ./tracefiles/10.trace.xz: No such file or directory
*** Reached end of trace for Core: 0 Repeating trace: ./tracefiles/10.trace.xz
xz: ./tracefiles/10.trace.xz: No such file or directory
*** Reached end of trace for Core: 0 Repeating trace: ./tracefiles/10.trace.xz
xz: ./tracefiles/10.trace.xz: No such file or directory
*** Reached end of trace for Core: 0 Repeating trace: ./tracefiles/10.trace.xz
xz: ./tracefiles/10.trace.xz: No such file or directory
*** Reached end of trace for Core: 0 Repeating trace: ./tracefiles/10.trace.xz
xz: ./tracefiles/10.trace.xz: No such file or directory
*** Reached end of trace for Core: 0 Repeating trace: ./tracefiles/10.trace.xz
xz: ./tracefiles/10.trace.xz: No such file or directory
*** Reached end of trace for Core: 0 Repeating trace: ./tracefiles/10.trace.xz
xz: ./tracefiles/10.trace.xz: No such file or directory
*** Reached end of trace for Core: 0 Repeating trace: ./tracefiles/10.trace.xz
xz: ./tracefiles/10.trace.xz: No such file or directory
*** Reached end of trace for Core: 0 Repeating trace: ./tracefiles/10.trace.xz
xz: ./tracefiles/10.trace.xz: No such file or directory
*** Reached end of trace for Core: 0 Repeating trace: ./tracefiles/10.trace.xz
xz: ./tracefiles/10.trace.xz: No such file or directory
*** Reached end of trace for Core: 0 Repeating trace: ./tracefiles/10.trace.xz
xz: ./tracefiles/10.trace.xz: No such file or directory
*** Reached end of trace for Core: 0 Repeating trace: ./tracefiles/10.trace.xz
xz: ./tracefiles/10.trace.xz: No such file or directory
*** Reached end of trace for Core: 0 Repeating trace: ./tracefiles/10.trace.xz
xz: ./tracefiles/10.trace.xz: No such file or directory
*** Reached end of trace for Core: 0 Repeating trace: ./tracefiles/10.trace.xz
xz: ./tracefiles/10.trace.xz: No such file or directory
*** Reached end of trace for Core: 0 Repeating trace: ./tracefiles/10.trace.xz
xz: ./tracefiles/10.trace.xz: No such file or directory
*** Reached end of trace for Core: 0 Repeating trace: ./tracefiles/10.trace.xz
xz: ./tracefiles/10.trace.xz: No such file or directory
*** Reached end of trace for Core: 0 Repeating trace: ./tracefiles/10.trace.xz
xz: ./tracefiles/10.trace.xz: No such file or directory
*** Reached end of trace for Core: 0 Repeating trace: ./tracefiles/10.trace.xz
xz: ./tracefiles/10.trace.xz: No such file or directory
*** Reached end of trace for Core: 0 Repeating trace: ./tracefiles/10.trace.xz
xz: ./tracefiles/10.trace.xz: No such file or directory
*** Reached end of trace for Core: 0 Repeating trace: ./tracefiles/10.trace.xz
xz: ./tracefiles/10.trace.xz: No such file or directory
*** Reached end of trace for Core: 0 Repeating trace: ./tracefiles/10.trace.xz
xz: ./tracefiles/10.trace.xz: No such file or directory
*** Reached end of trace for Core: 0 Repeating trace: ./tracefiles/10.trace.xz
xz: ./tracefiles/10.trace.xz: No such file or directory
*** Reached end of trace for Core: 0 Repeating trace: ./tracefiles/10.trace.xz
xz: ./tracefiles/10.trace.xz: No such file or directory
*** Reached end of trace for Core: 0 Repeating trace: ./tracefiles/10.trace.xz
xz: ./tracefiles/10.trace.xz: No such file or directory
*** Reached end of trace for Core: 0 Repeating trace: ./tracefiles/10.trace.xz
xz: ./tracefiles/10.trace.xz: No such file or directory
*** Reached end of trace for Core: 0 Repeating trace: ./tracefiles/10.trace.xz
xz: ./tracefiles/10.trace.xz: No such file or directory
*** Reached end of trace for Core: 0 Repeating trace: ./tracefiles/10.trace.xz
xz: ./tracefiles/10.trace.xz: No such file or directory
*** Reached end of trace for Core: 0 Repeating trace: ./tracefiles/10.trace.xz
xz: ./tracefiles/10.trace.xz: No such file or directory
*** Reached end of trace for Core: 0 Repeating trace: ./tracefiles/10.trace.xz
xz: ./tracefiles/10.trace.xz: No such file or directory
*** Reached end of trace for Core: 0 Repeating trace: ./tracefiles/10.trace.xz
xz: ./tracefiles/10.trace.xz: No such file or directory
*** Reached end of trace for Core: 0 Repeating trace: ./tracefiles/10.trace.xz
xz: ./tracefiles/10.trace.xz: No such file or directory
*** Reached end of trace for Core: 0 Repeating trace: ./tracefiles/10.trace.xz
xz: ./tracefiles/10.trace.xz: No such file or directory
*** Reached end of trace for Core: 0 Repeating trace: ./tracefiles/10.trace.xz
xz: ./tracefiles/10.trace.xz: No such file or directory
*** Reached end of trace for Core: 0 Repeating trace: ./tracefiles/10.trace.xz
xz: ./tracefiles/10.trace.xz: No such file or directory
*** Reached end of trace for Core: 0 Repeating trace: ./tracefiles/10.trace.xz
xz: ./tracefiles/10.trace.xz: No such file or directory
*** Reached end of trace for Core: 0 Repeating trace: ./tracefiles/10.trace.xz
xz: ./tracefiles/10.trace.xz: No such file or directory
*** Reached end of trace for Core: 0 Repeating trace: ./tracefiles/10.trace.xz
xz: ./tracefiles/10.trace.xz: No such file or directory
*** Reached end of trace for Core: 0 Repeating trace: ./tracefiles/10.trace.xz
xz: ./tracefiles/10.trace.xz: No such file or directory
*** Reached end of trace for Core: 0 Repeating trace: ./tracefiles/10.trace.xz
xz: ./tracefiles/10.trace.xz: No such file or directory
*** Reached end of trace for Core: 0 Repeating trace: ./tracefiles/10.trace.xz
xz: ./tracefiles/10.trace.xz: No such file or directory
*** Reached end of trace for Core: 0 Repeating trace: ./tracefiles/10.trace.xz
xz: ./tracefiles/10.trace.xz: No such file or directory
*** Reached end of trace for Core: 0 Repeating trace: ./tracefiles/10.trace.xz
xz: ./tracefiles/10.trace.xz: No such file or directory
*** Reached end of trace for Core: 0 Repeating trace: ./tracefiles/10.trace.xz
xz: ./tracefiles/10.trace.xz: No such file or directory
*** Reached end of trace for Core: 0 Repeating trace: ./tracefiles/10.trace.xz
xz: ./tracefiles/10.trace.xz: No such file or directory
*** Reached end of trace for Core: 0 Repeating trace: ./tracefiles/10.trace.xz
xz: ./tracefiles/10.trace.xz: No such file or directory
*** Reached end of trace for Core: 0 Repeating trace: ./tracefiles/10.trace.xz
xz: ./tracefiles/10.trace.xz: No such file or directory
*** Reached end of trace for Core: 0 Repeating trace: ./tracefiles/10.trace.xz
xz: ./tracefiles/10.trace.xz: No such file or directory
*** Reached end of trace for Core: 0 Repeating trace: ./tracefiles/10.trace.xz
xz: ./tracefiles/10.trace.xz: No such file or directory
*** Reached end of trace for Core: 0 Repeating trace: ./tracefiles/10.trace.xz
xz: ./tracefiles/10.trace.xz: No such file or directory
*** Reached end of trace for Core: 0 Repeating trace: ./tracefiles/10.trace.xz
xz: ./tracefiles/10.trace.xz: No such file or directory
*** Reached end of trace for Core: 0 Repeating trace: ./tracefiles/10.trace.xz
xz: ./tracefiles/10.trace.xz: No such file or directory
*** Reached end of trace for Core: 0 Repeating trace: ./tracefiles/10.trace.xz
xz: ./tracefiles/10.trace.xz: No such file or directory
*** Reached end of trace for Core: 0 Repeating trace: ./tracefiles/10.trace.xz
xz: ./tracefiles/10.trace.xz: No such file or directory
*** Reached end of trace for Core: 0 Repeating trace: ./tracefiles/10.trace.xz
xz: ./tracefiles/10.trace.xz: No such file or directory
*** Reached end of trace for Core: 0 Repeating trace: ./tracefiles/10.trace.xz
xz: ./tracefiles/10.trace.xz: No such file or directory
*** Reached end of trace for Core: 0 Repeating trace: ./tracefiles/10.trace.xz
xz: ./tracefiles/10.trace.xz: No such file or directory
*** Reached end of trace for Core: 0 Repeating trace: ./tracefiles/10.trace.xz
xz: ./tracefiles/10.trace.xz: No such file or directory
*** Reached end of trace for Core: 0 Repeating trace: ./tracefiles/10.trace.xz
xz: ./tracefiles/10.trace.xz: No such file or directory
*** Reached end of trace for Core: 0 Repeating trace: ./tracefiles/10.trace.xz
xz: ./tracefiles/10.trace.xz: No such file or directory
*** Reached end of trace for Core: 0 Repeating trace: ./tracefiles/10.trace.xz
xz: ./tracefiles/10.trace.xz: No such file or directory
*** Reached end of trace for Core: 0 Repeating trace: ./tracefiles/10.trace.xz
xz: ./tracefiles/10.trace.xz: No such file or directory
*** Reached end of trace for Core: 0 Repeating trace: ./tracefiles/10.trace.xz
xz: ./tracefiles/10.trace.xz: No such file or directory
*** Reached end of trace for Core: 0 Repeating trace: ./tracefiles/10.trace.xz
xz: ./tracefiles/10.trace.xz: No such file or directory
*** Reached end of trace for Core: 0 Repeating trace: ./tracefiles/10.trace.xz
xz: ./tracefiles/10.trace.xz: No such file or directory
*** Reached end of trace for Core: 0 Repeating trace: ./tracefiles/10.trace.xz
xz: ./tracefiles/10.trace.xz: No such file or directory
*** Reached end of trace for Core: 0 Repeating trace: ./tracefiles/10.trace.xz
xz: ./tracefiles/10.trace.xz: No such file or directory
*** Reached end of trace for Core: 0 Repeating trace: ./tracefiles/10.trace.xz
xz: ./tracefiles/10.trace.xz: No such file or directory
*** Reached end of trace for Core: 0 Repeating trace: ./tracefiles/10.trace.xz
xz: ./tracefiles/10.trace.xz: No such file or directory
*** Reached end of trace for Core: 0 Repeating trace: ./tracefiles/10.trace.xz
xz: ./tracefiles/10.trace.xz: No such file or directory
*** Reached end of trace for Core: 0 Repeating trace: ./tracefiles/10.trace.xz
xz: ./tracefiles/10.trace.xz: No such file or directory
*** Reached end of trace for Core: 0 Repeating trace: ./tracefiles/10.trace.xz
xz: ./tracefiles/10.trace.xz: No such file or directory
*** Reached end of trace for Core: 0 Repeating trace: ./tracefiles/10.trace.xz
xz: ./tracefiles/10.trace.xz: No such file or directory
*** Reached end of trace for Core: 0 Repeating trace: ./tracefiles/10.trace.xz
xz: ./tracefiles/10.trace.xz: No such file or directory
*** Reached end of trace for Core: 0 Repeating trace: ./tracefiles/10.trace.xz
xz: ./tracefiles/10.trace.xz: No such file or directory
*** Reached end of trace for Core: 0 Repeating trace: ./tracefiles/10.trace.xz
xz: ./tracefiles/10.trace.xz: No such file or directory
*** Reached end of trace for Core: 0 Repeating trace: ./tracefiles/10.trace.xz
xz: ./tracefiles/10.trace.xz: No such file or directory
*** Reached end of trace for Core: 0 Repeating trace: ./tracefiles/10.trace.xz
xz: ./tracefiles/10.trace.xz: No such file or directory
*** Reached end of trace for Core: 0 Repeating trace: ./tracefiles/10.trace.xz
xz: ./tracefiles/10.trace.xz: No such file or directory
*** Reached end of trace for Core: 0 Repeating trace: ./tracefiles/10.trace.xz
xz: ./tracefiles/10.trace.xz: No such file or directory
*** Reached end of trace for Core: 0 Repeating trace: ./tracefiles/10.trace.xz
xz: ./tracefiles/10.trace.xz: No such file or directory
*** Reached end of trace for Core: 0 Repeating trace: ./tracefiles/10.trace.xz
xz: ./tracefiles/10.trace.xz: No such file or directory
*** Reached end of trace for Core: 0 Repeating trace: ./tracefiles/10.trace.xz
xz: ./tracefiles/10.trace.xz: No such file or directory
*** Reached end of trace for Core: 0 Repeating trace: ./tracefiles/10.trace.xz
xz: ./tracefiles/10.trace.xz: No such file or directory
*** Reached end of trace for Core: 0 Repeating trace: ./tracefiles/10.trace.xz
xz: ./tracefiles/10.trace.xz: No such file or directory
*** Reached end of trace for Core: 0 Repeating trace: ./tracefiles/10.trace.xz
xz: ./tracefiles/10.trace.xz: No such file or directory
*** Reached end of trace for Core: 0 Repeating trace: ./tracefiles/10.trace.xz
xz: ./tracefiles/10.trace.xz: No such file or directory
*** Reached end of trace for Core: 0 Repeating trace: ./tracefiles/10.trace.xz
xz: ./tracefiles/10.trace.xz: No such file or directory
*** Reached end of trace for Core: 0 Repeating trace: ./tracefiles/10.trace.xz
xz: ./tracefiles/10.trace.xz: No such file or directory
*** Reached end of trace for Core: 0 Repeating trace: ./tracefiles/10.trace.xz
xz: ./tracefiles/10.trace.xz: No such file or directory
*** Reached end of trace for Core: 0 Repeating trace: ./tracefiles/10.trace.xz
xz: ./tracefiles/10.trace.xz: No such file or directory
*** Reached end of trace for Core: 0 Repeating trace: ./tracefiles/10.trace.xz
xz: ./tracefiles/10.trace.xz: No such file or directory
*** Reached end of trace for Core: 0 Repeating trace: ./tracefiles/10.trace.xz
xz: ./tracefiles/10.trace.xz: No such file or directory
*** Reached end of trace for Core: 0 Repeating trace: ./tracefiles/10.trace.xz
xz: ./tracefiles/10.trace.xz: No such file or directory
*** Reached end of trace for Core: 0 Repeating trace: ./tracefiles/10.trace.xz
xz: ./tracefiles/10.trace.xz: No such file or directory
*** Reached end of trace for Core: 0 Repeating trace: ./tracefiles/10.trace.xz
xz: ./tracefiles/10.trace.xz: No such file or directory
*** Reached end of trace for Core: 0 Repeating trace: ./tracefiles/10.trace.xz
xz: ./tracefiles/10.trace.xz: No such file or directory
*** Reached end of trace for Core: 0 Repeating trace: ./tracefiles/10.trace.xz
xz: ./tracefiles/10.trace.xz: No such file or directory
*** Reached end of trace for Core: 0 Repeating trace: ./tracefiles/10.trace.xz
xz: ./tracefiles/10.trace.xz: No such file or directory
*** Reached end of trace for Core: 0 Repeating trace: ./tracefiles/10.trace.xz
xz: ./tracefiles/10.trace.xz: No such file or directory
*** Reached end of trace for Core: 0 Repeating trace: ./tracefiles/10.trace.xz
xz: ./tracefiles/10.trace.xz: No such file or directory
*** Reached end of trace for Core: 0 Repeating trace: ./tracefiles/10.trace.xz
xz: ./tracefiles/10.trace.xz: No such file or directory
*** Reached end of trace for Core: 0 Repeating trace: ./tracefiles/10.trace.xz
xz: ./tracefiles/10.trace.xz: No such file or directory
*** Reached end of trace for Core: 0 Repeating trace: ./tracefiles/10.trace.xz
xz: ./tracefiles/10.trace.xz: No such file or directory
*** Reached end of trace for Core: 0 Repeating trace: ./tracefiles/10.trace.xz
xz: ./tracefiles/10.trace.xz: No such file or directory
*** Reached end of trace for Core: 0 Repeating trace: ./tracefiles/10.trace.xz
xz: ./tracefiles/10.trace.xz: No such file or directory
*** Reached end of trace for Core: 0 Repeating trace: ./tracefiles/10.trace.xz
xz: ./tracefiles/10.trace.xz: No such file or directory
*** Reached end of trace for Core: 0 Repeating trace: ./tracefiles/10.trace.xz
xz: ./tracefiles/10.trace.xz: No such file or directory
*** Reached end of trace for Core: 0 Repeating trace: ./tracefiles/10.trace.xz
xz: ./tracefiles/10.trace.xz: No such file or directory
*** Reached end of trace for Core: 0 Repeating trace: ./tracefiles/10.trace.xz
xz: ./tracefiles/10.trace.xz: No such file or directory
*** Reached end of trace for Core: 0 Repeating trace: ./tracefiles/10.trace.xz
xz: ./tracefiles/10.trace.xz: No such file or directory
*** Reached end of trace for Core: 0 Repeating trace: ./tracefiles/10.trace.xz
xz: ./tracefiles/10.trace.xz: No such file or directory
*** Reached end of trace for Core: 0 Repeating trace: ./tracefiles/10.trace.xz
xz: ./tracefiles/10.trace.xz: No such file or directory
*** Reached end of trace for Core: 0 Repeating trace: ./tracefiles/10.trace.xz
xz: ./tracefiles/10.trace.xz: No such file or directory
*** Reached end of trace for Core: 0 Repeating trace: ./tracefiles/10.trace.xz
xz: ./tracefiles/10.trace.xz: No such file or directory
*** Reached end of trace for Core: 0 Repeating trace: ./tracefiles/10.trace.xz
xz: ./tracefiles/10.trace.xz: No such file or directory
*** Reached end of trace for Core: 0 Repeating trace: ./tracefiles/10.trace.xz
xz: ./tracefiles/10.trace.xz: No such file or directory
*** Reached end of trace for Core: 0 Repeating trace: ./tracefiles/10.trace.xz
xz: ./tracefiles/10.trace.xz: No such file or directory
*** Reached end of trace for Core: 0 Repeating trace: ./tracefiles/10.trace.xz
xz: ./tracefiles/10.trace.xz: No such file or directory
*** Reached end of trace for Core: 0 Repeating trace: ./tracefiles/10.trace.xz
xz: ./tracefiles/10.trace.xz: No such file or directory
*** Reached end of trace for Core: 0 Repeating trace: ./tracefiles/10.trace.xz
xz: ./tracefiles/10.trace.xz: No such file or directory
*** Reached end of trace for Core: 0 Repeating trace: ./tracefiles/10.trace.xz
xz: ./tracefiles/10.trace.xz: No such file or directory
*** Reached end of trace for Core: 0 Repeating trace: ./tracefiles/10.trace.xz
xz: ./tracefiles/10.trace.xz: No such file or directory
*** Reached end of trace for Core: 0 Repeating trace: ./tracefiles/10.trace.xz
xz: ./tracefiles/10.trace.xz: No such file or directory
*** Reached end of trace for Core: 0 Repeating trace: ./tracefiles/10.trace.xz
xz: ./tracefiles/10.trace.xz: No such file or directory
*** Reached end of trace for Core: 0 Repeating trace: ./tracefiles/10.trace.xz
xz: ./tracefiles/10.trace.xz: No such file or directory
*** Reached end of trace for Core: 0 Repeating trace: ./tracefiles/10.trace.xz
xz: ./tracefiles/10.trace.xz: No such file or directory
*** Reached end of trace for Core: 0 Repeating trace: ./tracefiles/10.trace.xz
xz: ./tracefiles/10.trace.xz: No such file or directory
*** Reached end of trace for Core: 0 Repeating trace: ./tracefiles/10.trace.xz
xz: ./tracefiles/10.trace.xz: No such file or directory
*** Reached end of trace for Core: 0 Repeating trace: ./tracefiles/10.trace.xz
xz: ./tracefiles/10.trace.xz: No such file or directory
*** Reached end of trace for Core: 0 Repeating trace: ./tracefiles/10.trace.xz
xz: ./tracefiles/10.trace.xz: No such file or directory
*** Reached end of trace for Core: 0 Repeating trace: ./tracefiles/10.trace.xz
xz: ./tracefiles/10.trace.xz: No such file or directory
*** Reached end of trace for Core: 0 Repeating trace: ./tracefiles/10.trace.xz
xz: ./tracefiles/10.trace.xz: No such file or directory
*** Reached end of trace for Core: 0 Repeating trace: ./tracefiles/10.trace.xz
xz: ./tracefiles/10.trace.xz: No such file or directory
*** Reached end of trace for Core: 0 Repeating trace: ./tracefiles/10.trace.xz
xz: ./tracefiles/10.trace.xz: No such file or directory
*** Reached end of trace for Core: 0 Repeating trace: ./tracefiles/10.trace.xz
xz: ./tracefiles/10.trace.xz: No such file or directory
*** Reached end of trace for Core: 0 Repeating trace: ./tracefiles/10.trace.xz
xz: ./tracefiles/10.trace.xz: No such file or directory
*** Reached end of trace for Core: 0 Repeating trace: ./tracefiles/10.trace.xz
xz: ./tracefiles/10.trace.xz: No such file or directory
*** Reached end of trace for Core: 0 Repeating trace: ./tracefiles/10.trace.xz
xz: ./tracefiles/10.trace.xz: No such file or directory
*** Reached end of trace for Core: 0 Repeating trace: ./tracefiles/10.trace.xz
xz: ./tracefiles/10.trace.xz: No such file or directory
*** Reached end of trace for Core: 0 Repeating trace: ./tracefiles/10.trace.xz
xz: ./tracefiles/10.trace.xz: No such file or directory
*** Reached end of trace for Core: 0 Repeating trace: ./tracefiles/10.trace.xz
xz: ./tracefiles/10.trace.xz: No such file or directory
*** Reached end of trace for Core: 0 Repeating trace: ./tracefiles/10.trace.xz
xz: ./tracefiles/10.trace.xz: No such file or directory
*** Reached end of trace for Core: 0 Repeating trace: ./tracefiles/10.trace.xz
xz: ./tracefiles/10.trace.xz: No such file or directory
*** Reached end of trace for Core: 0 Repeating trace: ./tracefiles/10.trace.xz
xz: ./tracefiles/10.trace.xz: No such file or directory
*** Reached end of trace for Core: 0 Repeating trace: ./tracefiles/10.trace.xz
xz: ./tracefiles/10.trace.xz: No such file or directory
*** Reached end of trace for Core: 0 Repeating trace: ./tracefiles/10.trace.xz
xz: ./tracefiles/10.trace.xz: No such file or directory
*** Reached end of trace for Core: 0 Repeating trace: ./tracefiles/10.trace.xz
xz: ./tracefiles/10.trace.xz: No such file or directory
*** Reached end of trace for Core: 0 Repeating trace: ./tracefiles/10.trace.xz
xz: ./tracefiles/10.trace.xz: No such file or directory
*** Reached end of trace for Core: 0 Repeating trace: ./tracefiles/10.trace.xz
xz: ./tracefiles/10.trace.xz: No such file or directory
*** Reached end of trace for Core: 0 Repeating trace: ./tracefiles/10.trace.xz
xz: ./tracefiles/10.trace.xz: No such file or directory
*** Reached end of trace for Core: 0 Repeating trace: ./tracefiles/10.trace.xz
xz: ./tracefiles/10.trace.xz: No such file or directory
*** Reached end of trace for Core: 0 Repeating trace: ./tracefiles/10.trace.xz
xz: ./tracefiles/10.trace.xz: No such file or directory
*** Reached end of trace for Core: 0 Repeating trace: ./tracefiles/10.trace.xz
xz: ./tracefiles/10.trace.xz: No such file or directory
*** Reached end of trace for Core: 0 Repeating trace: ./tracefiles/10.trace.xz
xz: ./tracefiles/10.trace.xz: No such file or directory
*** Reached end of trace for Core: 0 Repeating trace: ./tracefiles/10.trace.xz
xz: ./tracefiles/10.trace.xz: No such file or directory
*** Reached end of trace for Core: 0 Repeating trace: ./tracefiles/10.trace.xz
xz: ./tracefiles/10.trace.xz: No such file or directory
*** Reached end of trace for Core: 0 Repeating trace: ./tracefiles/10.trace.xz
xz: ./tracefiles/10.trace.xz: No such file or directory
*** Reached end of trace for Core: 0 Repeating trace: ./tracefiles/10.trace.xz
xz: ./tracefiles/10.trace.xz: No such file or directory
*** Reached end of trace for Core: 0 Repeating trace: ./tracefiles/10.trace.xz
xz: ./tracefiles/10.trace.xz: No such file or directory
*** Reached end of trace for Core: 0 Repeating trace: ./tracefiles/10.trace.xz
xz: ./tracefiles/10.trace.xz: No such file or directory
*** Reached end of trace for Core: 0 Repeating trace: ./tracefiles/10.trace.xz
xz: ./tracefiles/10.trace.xz: No such file or directory
*** Reached end of trace for Core: 0 Repeating trace: ./tracefiles/10.trace.xz
xz: ./tracefiles/10.trace.xz: No such file or directory
*** Reached end of trace for Core: 0 Repeating trace: ./tracefiles/10.trace.xz
xz: ./tracefiles/10.trace.xz: No such file or directory
*** Reached end of trace for Core: 0 Repeating trace: ./tracefiles/10.trace.xz
xz: ./tracefiles/10.trace.xz: No such file or directory
*** Reached end of trace for Core: 0 Repeating trace: ./tracefiles/10.trace.xz
xz: ./tracefiles/10.trace.xz: No such file or directory
*** Reached end of trace for Core: 0 Repeating trace: ./tracefiles/10.trace.xz
xz: ./tracefiles/10.trace.xz: No such file or directory
*** Reached end of trace for Core: 0 Repeating trace: ./tracefiles/10.trace.xz
xz: ./tracefiles/10.trace.xz: No such file or directory
*** Reached end of trace for Core: 0 Repeating trace: ./tracefiles/10.trace.xz
xz: ./tracefiles/10.trace.xz: No such file or directory
*** Reached end of trace for Core: 0 Repeating trace: ./tracefiles/10.trace.xz
xz: ./tracefiles/10.trace.xz: No such file or directory
*** Reached end of trace for Core: 0 Repeating trace: ./tracefiles/10.trace.xz
xz: ./tracefiles/10.trace.xz: No such file or directory
*** Reached end of trace for Core: 0 Repeating trace: ./tracefiles/10.trace.xz
xz: ./tracefiles/10.trace.xz: No such file or directory
*** Reached end of trace for Core: 0 Repeating trace: ./tracefiles/10.trace.xz
xz: ./tracefiles/10.trace.xz: No such file or directory
*** Reached end of trace for Core: 0 Repeating trace: ./tracefiles/10.trace.xz
xz: ./tracefiles/10.trace.xz: No such file or directory
*** Reached end of trace for Core: 0 Repeating trace: ./tracefiles/10.trace.xz
xz: ./tracefiles/10.trace.xz: No such file or directory
*** Reached end of trace for Core: 0 Repeating trace: ./tracefiles/10.trace.xz
xz: ./tracefiles/10.trace.xz: No such file or directory
*** Reached end of trace for Core: 0 Repeating trace: ./tracefiles/10.trace.xz
xz: ./tracefiles/10.trace.xz: No such file or directory
*** Reached end of trace for Core: 0 Repeating trace: ./tracefiles/10.trace.xz
xz: ./tracefiles/10.trace.xz: No such file or directory
*** Reached end of trace for Core: 0 Repeating trace: ./tracefiles/10.trace.xz
xz: ./tracefiles/10.trace.xz: No such file or directory
*** Reached end of trace for Core: 0 Repeating trace: ./tracefiles/10.trace.xz
xz: ./tracefiles/10.trace.xz: No such file or directory
*** Reached end of trace for Core: 0 Repeating trace: ./tracefiles/10.trace.xz
xz: ./tracefiles/10.trace.xz: No such file or directory
*** Reached end of trace for Core: 0 Repeating trace: ./tracefiles/10.trace.xz
xz: ./tracefiles/10.trace.xz: No such file or directory
*** Reached end of trace for Core: 0 Repeating trace: ./tracefiles/10.trace.xz
xz: ./tracefiles/10.trace.xz: No such file or directory
*** Reached end of trace for Core: 0 Repeating trace: ./tracefiles/10.trace.xz
xz: ./tracefiles/10.trace.xz: No such file or directory
*** Reached end of trace for Core: 0 Repeating trace: ./tracefiles/10.trace.xz
xz: ./tracefiles/10.trace.xz: No such file or directory
*** Reached end of trace for Core: 0 Repeating trace: ./tracefiles/10.trace.xz
xz: ./tracefiles/10.trace.xz: No such file or directory
*** Reached end of trace for Core: 0 Repeating trace: ./tracefiles/10.trace.xz
xz: ./tracefiles/10.trace.xz: No such file or directory
*** Reached end of trace for Core: 0 Repeating trace: ./tracefiles/10.trace.xz
xz: ./tracefiles/10.trace.xz: No such file or directory
*** Reached end of trace for Core: 0 Repeating trace: ./tracefiles/10.trace.xz
xz: ./tracefiles/10.trace.xz: No such file or directory
*** Reached end of trace for Core: 0 Repeating trace: ./tracefiles/10.trace.xz
xz: ./tracefiles/10.trace.xz: No such file or directory
*** Reached end of trace for Core: 0 Repeating trace: ./tracefiles/10.trace.xz
xz: ./tracefiles/10.trace.xz: No such file or directory
*** Reached end of trace for Core: 0 Repeating trace: ./tracefiles/10.trace.xz
xz: ./tracefiles/10.trace.xz: No such file or directory
*** Reached end of trace for Core: 0 Repeating trace: ./tracefiles/10.trace.xz
xz: ./tracefiles/10.trace.xz: No such file or directory
*** Reached end of trace for Core: 0 Repeating trace: ./tracefiles/10.trace.xz
xz: ./tracefiles/10.trace.xz: No such file or directory
*** Reached end of trace for Core: 0 Repeating trace: ./tracefiles/10.trace.xz
xz: ./tracefiles/10.trace.xz: No such file or directory
*** Reached end of trace for Core: 0 Repeating trace: ./tracefiles/10.trace.xz
xz: ./tracefiles/10.trace.xz: No such file or directory
*** Reached end of trace for Core: 0 Repeating trace: ./tracefiles/10.trace.xz
xz: ./tracefiles/10.trace.xz: No such file or directory
*** Reached end of trace for Core: 0 Repeating trace: ./tracefiles/10.trace.xz
xz: ./tracefiles/10.trace.xz: No such file or directory
*** Reached end of trace for Core: 0 Repeating trace: ./tracefiles/10.trace.xz
xz: ./tracefiles/10.trace.xz: No such file or directory
*** Reached end of trace for Core: 0 Repeating trace: ./tracefiles/10.trace.xz
xz: ./tracefiles/10.trace.xz: No such file or directory
*** Reached end of trace for Core: 0 Repeating trace: ./tracefiles/10.trace.xz
xz: ./tracefiles/10.trace.xz: No such file or directory
*** Reached end of trace for Core: 0 Repeating trace: ./tracefiles/10.trace.xz
xz: ./tracefiles/10.trace.xz: No such file or directory
*** Reached end of trace for Core: 0 Repeating trace: ./tracefiles/10.trace.xz
xz: ./tracefiles/10.trace.xz: No such file or directory
*** Reached end of trace for Core: 0 Repeating trace: ./tracefiles/10.trace.xz
xz: ./tracefiles/10.trace.xz: No such file or directory
*** Reached end of trace for Core: 0 Repeating trace: ./tracefiles/10.trace.xz
xz: ./tracefiles/10.trace.xz: No such file or directory
*** Reached end of trace for Core: 0 Repeating trace: ./tracefiles/10.trace.xz
xz: ./tracefiles/10.trace.xz: No such file or directory
*** Reached end of trace for Core: 0 Repeating trace: ./tracefiles/10.trace.xz
xz: ./tracefiles/10.trace.xz: No such file or directory
*** Reached end of trace for Core: 0 Repeating trace: ./tracefiles/10.trace.xz
xz: ./tracefiles/10.trace.xz: No such file or directory
*** Reached end of trace for Core: 0 Repeating trace: ./tracefiles/10.trace.xz
xz: ./tracefiles/10.trace.xz: No such file or directory
*** Reached end of trace for Core: 0 Repeating trace: ./tracefiles/10.trace.xz
xz: ./tracefiles/10.trace.xz: No such file or directory
*** Reached end of trace for Core: 0 Repeating trace: ./tracefiles/10.trace.xz
xz: ./tracefiles/10.trace.xz: No such file or directory
*** Reached end of trace for Core: 0 Repeating trace: ./tracefiles/10.trace.xz
xz: ./tracefiles/10.trace.xz: No such file or directory
*** Reached end of trace for Core: 0 Repeating trace: ./tracefiles/10.trace.xz
xz: ./tracefiles/10.trace.xz: No such file or directory
*** Reached end of trace for Core: 0 Repeating trace: ./tracefiles/10.trace.xz
xz: ./tracefiles/10.trace.xz: No such file or directory
*** Reached end of trace for Core: 0 Repeating trace: ./tracefiles/10.trace.xz
xz: ./tracefiles/10.trace.xz: No such file or directory
*** Reached end of trace for Core: 0 Repeating trace: ./tracefiles/10.trace.xz
xz: ./tracefiles/10.trace.xz: No such file or directory
*** Reached end of trace for Core: 0 Repeating trace: ./tracefiles/10.trace.xz
xz: ./tracefiles/10.trace.xz: No such file or directory
*** Reached end of trace for Core: 0 Repeating trace: ./tracefiles/10.trace.xz
xz: ./tracefiles/10.trace.xz: No such file or directory
*** Reached end of trace for Core: 0 Repeating trace: ./tracefiles/10.trace.xz
xz: ./tracefiles/10.trace.xz: No such file or directory
*** Reached end of trace for Core: 0 Repeating trace: ./tracefiles/10.trace.xz
xz: ./tracefiles/10.trace.xz: No such file or directory
*** Reached end of trace for Core: 0 Repeating trace: ./tracefiles/10.trace.xz
xz: ./tracefiles/10.trace.xz: No such file or directory
*** Reached end of trace for Core: 0 Repeating trace: ./tracefiles/10.trace.xz
xz: ./tracefiles/10.trace.xz: No such file or directory
*** Reached end of trace for Core: 0 Repeating trace: ./tracefiles/10.trace.xz
xz: ./tracefiles/10.trace.xz: No such file or directory
*** Reached end of trace for Core: 0 Repeating trace: ./tracefiles/10.trace.xz
xz: ./tracefiles/10.trace.xz: No such file or directory
*** Reached end of trace for Core: 0 Repeating trace: ./tracefiles/10.trace.xz
xz: ./tracefiles/10.trace.xz: No such file or directory
*** Reached end of trace for Core: 0 Repeating trace: ./tracefiles/10.trace.xz
xz: ./tracefiles/10.trace.xz: No such file or directory
*** Reached end of trace for Core: 0 Repeating trace: ./tracefiles/10.trace.xz
xz: ./tracefiles/10.trace.xz: No such file or directory
*** Reached end of trace for Core: 0 Repeating trace: ./tracefiles/10.trace.xz
xz: ./tracefiles/10.trace.xz: No such file or directory
*** Reached end of trace for Core: 0 Repeating trace: ./tracefiles/10.trace.xz
[...]
xz: ./tracefiles/10.trace.xz: No such file or directory
*** Reached end of trace for Core: 0 Repeating trace: ./tracefiles/10.trace.xz
xz: ./tracefiles/10.trace.xz: No such file or directory
*** Reached end of trace for Core: 0 Repeating trace: ./tracefiles/10.trace.xz
xz: ./tracefiles/10.trace.xz: No such file or directory
*** Reached end of trace for Core: 0 Repeating trace: ./tracefiles/10.trace.xz
xz: ./tracefiles/10.trace.xz: No such file or directory
*** Reached end of trace for Core: 0 Repeating trace: ./tracefiles/10.trace.xz
xz: ./tracefiles/10.trace.xz: No such file or directory
*** Reached end of trace for Core: 0 Repeating trace: ./tracefiles/10.trace.xz
xz: ./tracefiles/10.trace.xz: No such file or directory
*** Reached end of trace for Core: 0 Repeating trace: ./tracefiles/10.trace.xz
xz: ./tracefiles/10.trace.xz: No such file or directory
*** Reached end of trace for Core: 0 Repeating trace: ./tracefiles/10.trace.xz
xz: ./tracefiles/10.trace.xz: No such file or directory
*** Reached end of trace for Core: 0 Repeating trace: ./tracefiles/10.trace.xz
xz: ./tracefiles/10.trace.xz: No such file or directory
*** Reached end of trace for Core: 0 Repeating trace: ./tracefiles/10.trace.xz
xz: ./tracefiles/10.trace.xz: No such file or directory
*** Reached end of trace for Core: 0 Repeating trace: ./tracefiles/10.trace.xz
xz: ./tracefiles/10.trace.xz: No such file or directory
*** Reached end of trace for Core: 0 Repeating trace: ./tracefiles/10.trace.xz
xz: ./tracefiles/10.trace.xz: No such file or directory
*** Reached end of trace for Core: 0 Repeating trace: ./tracefiles/10.trace.xz
xz: ./tracefiles/10.trace.xz: No such file or directory
*** Reached end of trace for Core: 0 Repeating trace: ./tracefiles/10.trace.xz
xz: ./tracefiles/10.trace.xz: No such file or directory
*** Reached end of trace for Core: 0 Repeating trace: ./tracefiles/10.trace.xz
xz: ./tracefiles/10.trace.xz: No such file or directory
*** Reached end of trace for Core: 0 Repeating trace: ./tracefiles/10.trace.xz
xz: ./tracefiles/10.trace.xz: No such file or directory
*** Reached end of trace for Core: 0 Repeating trace: ./tracefiles/10.trace.xz
xz: ./tracefiles/10.trace.xz: No such file or directory
*** Reached end of trace for Core: 0 Repeating trace: ./tracefiles/10.trace.xz
xz: ./tracefiles/10.trace.xz: No such file or directory
*** Reached end of trace for Core: 0 Repeating trace: ./tracefiles/10.trace.xz
xz: ./tracefiles/10.trace.xz: No such file or directory
*** Reached end of trace for Core: 0 Repeating trace: ./tracefiles/10.trace.xz
xz: ./tracefiles/10.trace.xz: No such file or directory
*** Reached end of trace for Core: 0 Repeating trace: ./tracefiles/10.trace.xz
xz: ./tracefiles/10.trace.xz: No such file or directory
*** Reached end of trace for Core: 0 Repeating trace: ./tracefiles/10.trace.xz
xz: ./tracefiles/10.trace.xz: No such file or directory
*** Reached end of trace for Core: 0 Repeating trace: ./tracefiles/10.trace.xz
xz: ./tracefiles/10.trace.xz: No such file or directory
*** Reached end of trace for Core: 0 Repeating trace: ./tracefiles/10.trace.xz
xz: ./tracefiles/10.trace.xz: No such file or directory
*** Reached end of trace for Core: 0 Repeating trace: ./tracefiles/10.trace.xz
xz: ./tracefiles/10.trace.xz: No such file or directory
*** Reached end of trace for Core: 0 Repeating trace: ./tracefiles/10.trace.xz
xz: ./tracefiles/10.trace.xz: No such file or directory
*** Reached end of trace for Core: 0 Repeating trace: ./tracefiles/10.trace.xz
xz: ./tracefiles/10.trace.xz: No such file or directory
*** Reached end of trace for Core: 0 Repeating trace: ./tracefiles/10.trace.xz
xz: ./tracefiles/10.trace.xz: No such file or directory
*** Reached end of trace for Core: 0 Repeating trace: ./tracefiles/10.trace.xz
xz: ./tracefiles/10.trace.xz: No such file or directory
*** Reached end of trace for Core: 0 Repeating trace: ./tracefiles/10.trace.xz
xz: ./tracefiles/10.trace.xz: No such file or directory
*** Reached end of trace for Core: 0 Repeating trace: ./tracefiles/10.trace.xz
xz: ./tracefiles/10.trace.xz: No such file or directory
*** Reached end of trace for Core: 0 Repeating trace: ./tracefiles/10.trace.xz
xz: ./tracefiles/10.trace.xz: No such file or directory
*** Reached end of trace for Core: 0 Repeating trace: ./tracefiles/10.trace.xz
xz: ./tracefiles/10.trace.xz: No such file or directory
*** Reached end of trace for Core: 0 Repeating trace: ./tracefiles/10.trace.xz
xz: ./tracefiles/10.trace.xz: No such file or directory
*** Reached end of trace for Core: 0 Repeating trace: ./tracefiles/10.trace.xz
xz: ./tracefiles/10.trace.xz: No such file or directory
*** Reached end of trace for Core: 0 Repeating trace: ./tracefiles/10.trace.xz
xz: ./tracefiles/10.trace.xz: No such file or directory
*** Reached end of trace for Core: 0 Repeating trace: ./tracefiles/10.trace.xz
xz: ./tracefiles/10.trace.xz: No such file or directory
*** Reached end of trace for Core: 0 Repeating trace: ./tracefiles/10.trace.xz
xz: ./tracefiles/10.trace.xz: No such file or directory
*** Reached end of trace for Core: 0 Repeating trace: ./tracefiles/10.trace.xz
xz: ./tracefiles/10.trace.xz: No such file or directory
*** Reached end of trace for Core: 0 Repeating trace: ./tracefiles/10.trace.xz
xz: ./tracefiles/10.trace.xz: No such file or directory
*** Reached end of trace for Core: 0 Repeating trace: ./tracefiles/10.trace.xz
xz: ./tracefiles/10.trace.xz: No such file or directory
*** Reached end of trace for Core: 0 Repeating trace: ./tracefiles/10.trace.xz
xz: ./tracefiles/10.trace.xz: No such file or directory
*** Reached end of trace for Core: 0 Repeating trace: ./tracefiles/10.trace.xz
xz: ./tracefiles/10.trace.xz: No such file or directory
*** Reached end of trace for Core: 0 Repeating trace: ./tracefiles/10.trace.xz
xz: ./tracefiles/10.trace.xz: No such file or directory
*** Reached end of trace for Core: 0 Repeating trace: ./tracefiles/10.trace.xz
xz: ./tracefiles/10.trace.xz: No such file or directory
*** Reached end of trace for Core: 0 Repeating trace: ./tracefiles/10.trace.xz
xz: ./tracefiles/10.trace.xz: No such file or directory
*** Reached end of trace for Core: 0 Repeating trace: ./tracefiles/10.trace.xz
xz: ./tracefiles/10.trace.xz: No such file or directory
*** Reached end of trace for Core: 0 Repeating trace: ./tracefiles/10.trace.xz
xz: ./tracefiles/10.trace.xz: No such file or directory
*** Reached end of trace for Core: 0 Repeating trace: ./tracefiles/10.trace.xz
xz: ./tracefiles/10.trace.xz: No such file or directory
*** Reached end of trace for Core: 0 Repeating trace: ./tracefiles/10.trace.xz
xz: ./tracefiles/10.trace.xz: No such file or directory
*** Reached end of trace for Core: 0 Repeating trace: ./tracefiles/10.trace.xz
xz: ./tracefiles/10.trace.xz: No such file or directory
*** Reached end of trace for Core: 0 Repeating trace: ./tracefiles/10.trace.xz
xz: ./tracefiles/10.trace.xz: No such file or directory
*** Reached end of trace for Core: 0 Repeating trace: ./tracefiles/10.trace.xz
xz: ./tracefiles/10.trace.xz: No such file or directory
*** Reached end of trace for Core: 0 Repeating trace: ./tracefiles/10.trace.xz
xz: ./tracefiles/10.trace.xz: No such file or directory
*** Reached end of trace for Core: 0 Repeating trace: ./tracefiles/10.trace.xz
xz: ./tracefiles/10.trace.xz: No such file or directory
*** Reached end of trace for Core: 0 Repeating trace: ./tracefiles/10.trace.xz
xz: ./tracefiles/10.trace.xz: No such file or directory
*** Reached end of trace for Core: 0 Repeating trace: ./tracefiles/10.trace.xz
xz: ./tracefiles/10.trace.xz: No such file or directory
*** Reached end of trace for Core: 0 Repeating trace: ./tracefiles/10.trace.xz
xz: ./tracefiles/10.trace.xz: No such file or directory
*** Reached end of trace for Core: 0 Repeating trace: ./tracefiles/10.trace.xz
xz: ./tracefiles/10.trace.xz: No such file or directory
*** Reached end of trace for Core: 0 Repeating trace: ./tracefiles/10.trace.xz
xz: ./tracefiles/10.trace.xz: No such file or directory
*** Reached end of trace for Core: 0 Repeating trace: ./tracefiles/10.trace.xz
xz: ./tracefiles/10.trace.xz: No such file or directory
*** Reached end of trace for Core: 0 Repeating trace: ./tracefiles/10.trace.xz
xz: ./tracefiles/10.trace.xz: No such file or directory
*** Reached end of trace for Core: 0 Repeating trace: ./tracefiles/10.trace.xz
xz: ./tracefiles/10.trace.xz: No such file or directory
*** Reached end of trace for Core: 0 Repeating trace: ./tracefiles/10.trace.xz
xz: ./tracefiles/10.trace.xz: No such file or directory
*** Reached end of trace for Core: 0 Repeating trace: ./tracefiles/10.trace.xz
xz: ./tracefiles/10.trace.xz: No such file or directory
*** Reached end of trace for Core: 0 Repeating trace: ./tracefiles/10.trace.xz
xz: ./tracefiles/10.trace.xz: No such file or directory
*** Reached end of trace for Core: 0 Repeating trace: ./tracefiles/10.trace.xz
xz: ./tracefiles/10.trace.xz: No such file or directory
*** Reached end of trace for Core: 0 Repeating trace: ./tracefiles/10.trace.xz
xz: ./tracefiles/10.trace.xz: No such file or directory
*** Reached end of trace for Core: 0 Repeating trace: ./tracefiles/10.trace.xz
xz: ./tracefiles/10.trace.xz: No such file or directory
*** Reached end of trace for Core: 0 Repeating trace: ./tracefiles/10.trace.xz
xz: ./tracefiles/10.trace.xz: No such file or directory
*** Reached end of trace for Core: 0 Repeating trace: ./tracefiles/10.trace.xz
xz: ./tracefiles/10.trace.xz: No such file or directory
*** Reached end of trace for Core: 0 Repeating trace: ./tracefiles/10.trace.xz
xz: ./tracefiles/10.trace.xz: No such file or directory
*** Reached end of trace for Core: 0 Repeating trace: ./tracefiles/10.trace.xz
xz: ./tracefiles/10.trace.xz: No such file or directory
*** Reached end of trace for Core: 0 Repeating trace: ./tracefiles/10.trace.xz
xz: ./tracefiles/10.trace.xz: No such file or directory
*** Reached end of trace for Core: 0 Repeating trace: ./tracefiles/10.trace.xz
xz: ./tracefiles/10.trace.xz: No such file or directory
*** Reached end of trace for Core: 0 Repeating trace: ./tracefiles/10.trace.xz
xz: ./tracefiles/10.trace.xz: No such file or directory
*** Reached end of trace for Core: 0 Repeating trace: ./tracefiles/10.trace.xz
xz: ./tracefiles/10.trace.xz: No such file or directory
*** Reached end of trace for Core: 0 Repeating trace: ./tracefiles/10.trace.xz
xz: ./tracefiles/10.trace.xz: No such file or directory
*** Reached end of trace for Core: 0 Repeating trace: ./tracefiles/10.trace.xz
xz: ./tracefiles/10.trace.xz: No such file or directory
*** Reached end of trace for Core: 0 Repeating trace: ./tracefiles/10.trace.xz
xz: ./tracefiles/10.trace.xz: No such file or directory
*** Reached end of trace for Core: 0 Repeating trace: ./tracefiles/10.trace.xz
xz: ./tracefiles/10.trace.xz: No such file or directory
*** Reached end of trace for Core: 0 Repeating trace: ./tracefiles/10.trace.xz
xz: ./tracefiles/10.trace.xz: No such file or directory
*** Reached end of trace for Core: 0 Repeating trace: ./tracefiles/10.trace.xz
xz: ./tracefiles/10.trace.xz: No such file or directory
*** Reached end of trace for Core: 0 Repeating trace: ./tracefiles/10.trace.xz
xz: ./tracefiles/10.trace.xz: No such file or directory
*** Reached end of trace for Core: 0 Repeating trace: ./tracefiles/10.trace.xz
xz: ./tracefiles/10.trace.xz: No such file or directory
*** Reached end of trace for Core: 0 Repeating trace: ./tracefiles/10.trace.xz
xz: ./tracefiles/10.trace.xz: No such file or directory
*** Reached end of trace for Core: 0 Repeating trace: ./tracefiles/10.trace.xz
xz: ./tracefiles/10.trace.xz: No such file or directory
*** Reached end of trace for Core: 0 Repeating trace: ./tracefiles/10.trace.xz
xz: ./tracefiles/10.trace.xz: No such file or directory
*** Reached end of trace for Core: 0 Repeating trace: ./tracefiles/10.trace.xz
xz: ./tracefiles/10.trace.xz: No such file or directory
*** Reached end of trace for Core: 0 Repeating trace: ./tracefiles/10.trace.xz
xz: ./tracefiles/10.trace.xz: No such file or directory
*** Reached end of trace for Core: 0 Repeating trace: ./tracefiles/10.trace.xz
xz: ./tracefiles/10.trace.xz: No such file or directory
*** Reached end of trace for Core: 0 Repeating trace: ./tracefiles/10.trace.xz
xz: ./tracefiles/10.trace.xz: No such file or directory
*** Reached end of trace for Core: 0 Repeating trace: ./tracefiles/10.trace.xz
xz: ./tracefiles/10.trace.xz: No such file or directory
*** Reached end of trace for Core: 0 Repeating trace: ./tracefiles/10.trace.xz
xz: ./tracefiles/10.trace.xz: No such file or directory
*** Reached end of trace for Core: 0 Repeating trace: ./tracefiles/10.trace.xz
xz: ./tracefiles/10.trace.xz: No such file or directory
*** Reached end of trace for Core: 0 Repeating trace: ./tracefiles/10.trace.xz
xz: ./tracefiles/10.trace.xz: No such file or directory
*** Reached end of trace for Core: 0 Repeating trace: ./tracefiles/10.trace.xz
xz: ./tracefiles/10.trace.xz: No such file or directory
*** Reached end of trace for Core: 0 Repeating trace: ./tracefiles/10.trace.xz
xz: ./tracefiles/10.trace.xz: No such file or directory
*** Reached end of trace for Core: 0 Repeating trace: ./tracefiles/10.trace.xz
xz: ./tracefiles/10.trace.xz: No such file or directory
*** Reached end of trace for Core: 0 Repeating trace: ./tracefiles/10.trace.xz
xz: ./tracefiles/10.trace.xz: No such file or directory
*** Reached end of trace for Core: 0 Repeating trace: ./tracefiles/10.trace.xz
xz: ./tracefiles/10.trace.xz: No such file or directory
*** Reached end of trace for Core: 0 Repeating trace: ./tracefiles/10.trace.xz
xz: ./tracefiles/10.trace.xz: No such file or directory
*** Reached end of trace for Core: 0 Repeating trace: ./tracefiles/10.trace.xz
xz: ./tracefiles/10.trace.xz: No such file or directory
*** Reached end of trace for Core: 0 Repeating trace: ./tracefiles/10.trace.xz
xz: ./tracefiles/10.trace.xz: No such file or directory
*** Reached end of trace for Core: 0 Repeating trace: ./tracefiles/10.trace.xz
xz: ./tracefiles/10.trace.xz: No such file or directory
*** Reached end of trace for Core: 0 Repeating trace: ./tracefiles/10.trace.xz
xz: ./tracefiles/10.trace.xz: No such file or directory
*** Reached end of trace for Core: 0 Repeating trace: ./tracefiles/10.trace.xz
xz: ./tracefiles/10.trace.xz: No such file or directory
*** Reached end of trace for Core: 0 Repeating trace: ./tracefiles/10.trace.xz
xz: ./tracefiles/10.trace.xz: No such file or directory
*** Reached end of trace for Core: 0 Repeating trace: ./tracefiles/10.trace.xz
xz: ./tracefiles/10.trace.xz: No such file or directory
*** Reached end of trace for Core: 0 Repeating trace: ./tracefiles/10.trace.xz
xz: ./tracefiles/10.trace.xz: No such file or directory
*** Reached end of trace for Core: 0 Repeating trace: ./tracefiles/10.trace.xz
xz: ./tracefiles/10.trace.xz: No such file or directory
*** Reached end of trace for Core: 0 Repeating trace: ./tracefiles/10.trace.xz
xz: ./tracefiles/10.trace.xz: No such file or directory
*** Reached end of trace for Core: 0 Repeating trace: ./tracefiles/10.trace.xz
xz: ./tracefiles/10.trace.xz: No such file or directory
*** Reached end of trace for Core: 0 Repeating trace: ./tracefiles/10.trace.xz
xz: ./tracefiles/10.trace.xz: No such file or directory
*** Reached end of trace for Core: 0 Repeating trace: ./tracefiles/10.trace.xz
xz: ./tracefiles/10.trace.xz: No such file or directory
*** Reached end of trace for Core: 0 Repeating trace: ./tracefiles/10.trace.xz
xz: ./tracefiles/10.trace.xz: No such file or directory
*** Reached end of trace for Core: 0 Repeating trace: ./tracefiles/10.trace.xz
xz: ./tracefiles/10.trace.xz: No such file or directory
*** Reached end of trace for Core: 0 Repeating trace: ./tracefiles/10.trace.xz
xz: ./tracefiles/10.trace.xz: No such file or directory
*** Reached end of trace for Core: 0 Repeating trace: ./tracefiles/10.trace.xz
xz: ./tracefiles/10.trace.xz: No such file or directory
*** Reached end of trace for Core: 0 Repeating trace: ./tracefiles/10.trace.xz
xz: ./tracefiles/10.trace.xz: No such file or directory
*** Reached end of trace for Core: 0 Repeating trace: ./tracefiles/10.trace.xz
xz: ./tracefiles/10.trace.xz: No such file or directory
*** Reached end of trace for Core: 0 Repeating trace: ./tracefiles/10.trace.xz
xz: ./tracefiles/10.trace.xz: No such file or directory
*** Reached end of trace for Core: 0 Repeating trace: ./tracefiles/10.trace.xz
xz: ./tracefiles/10.trace.xz: No such file or directory
*** Reached end of trace for Core: 0 Repeating trace: ./tracefiles/10.trace.xz
xz: ./tracefiles/10.trace.xz: No such file or directory
*** Reached end of trace for Core: 0 Repeating trace: ./tracefiles/10.trace.xz
xz: ./tracefiles/10.trace.xz: No such file or directory
*** Reached end of trace for Core: 0 Repeating trace: ./tracefiles/10.trace.xz
xz: ./tracefiles/10.trace.xz: No such file or directory
*** Reached end of trace for Core: 0 Repeating trace: ./tracefiles/10.trace.xz
xz: ./tracefiles/10.trace.xz: No such file or directory
*** Reached end of trace for Core: 0 Repeating trace: ./tracefiles/10.trace.xz
xz: ./tracefiles/10.trace.xz: No such file or directory
*** Reached end of trace for Core: 0 Repeating trace: ./tracefiles/10.trace.xz
xz: ./tracefiles/10.trace.xz: No such file or directory
*** Reached end of trace for Core: 0 Repeating trace: ./tracefiles/10.trace.xz
xz: ./tracefiles/10.trace.xz: No such file or directory
*** Reached end of trace for Core: 0 Repeating trace: ./tracefiles/10.trace.xz
xz: ./tracefiles/10.trace.xz: No such file or directory
*** Reached end of trace for Core: 0 Repeating trace: ./tracefiles/10.trace.xz
xz: ./tracefiles/10.trace.xz: No such file or directory
*** Reached end of trace for Core: 0 Repeating trace: ./tracefiles/10.trace.xz
xz: ./tracefiles/10.trace.xz: No such file or directory
*** Reached end of trace for Core: 0 Repeating trace: ./tracefiles/10.trace.xz
xz: ./tracefiles/10.trace.xz: No such file or directory
*** Reached end of trace for Core: 0 Repeating trace: ./tracefiles/10.trace.xz
xz: ./tracefiles/10.trace.xz: No such file or directory
*** Reached end of trace for Core: 0 Repeating trace: ./tracefiles/10.trace.xz
xz: ./tracefiles/10.trace.xz: No such file or directory
*** Reached end of trace for Core: 0 Repeating trace: ./tracefiles/10.trace.xz
xz: ./tracefiles/10.trace.xz: No such file or directory
*** Reached end of trace for Core: 0 Repeating trace: ./tracefiles/10.trace.xz
xz: ./tracefiles/10.trace.xz: No such file or directory
*** Reached end of trace for Core: 0 Repeating trace: ./tracefiles/10.trace.xz
xz: ./tracefiles/10.trace.xz: No such file or directory
*** Reached end of trace for Core: 0 Repeating trace: ./tracefiles/10.trace.xz
xz: ./tracefiles/10.trace.xz: No such file or directory
*** Reached end of trace for Core: 0 Repeating trace: ./tracefiles/10.trace.xz
xz: ./tracefiles/10.trace.xz: No such file or directory
*** Reached end of trace for Core: 0 Repeating trace: ./tracefiles/10.trace.xz
xz: ./tracefiles/10.trace.xz: No such file or directory
*** Reached end of trace for Core: 0 Repeating trace: ./tracefiles/10.trace.xz
xz: ./tracefiles/10.trace.xz: No such file or directory
*** Reached end of trace for Core: 0 Repeating trace: ./tracefiles/10.trace.xz
xz: ./tracefiles/10.trace.xz: No such file or directory
*** Reached end of trace for Core: 0 Repeating trace: ./tracefiles/10.trace.xz
xz: ./tracefiles/10.trace.xz: No such file or directory
*** Reached end of trace for Core: 0 Repeating trace: ./tracefiles/10.trace.xz
xz: ./tracefiles/10.trace.xz: No such file or directory
*** Reached end of trace for Core: 0 Repeating trace: ./tracefiles/10.trace.xz
xz: ./tracefiles/10.trace.xz: No such file or directory
*** Reached end of trace for Core: 0 Repeating trace: ./tracefiles/10.trace.xz
xz: ./tracefiles/10.trace.xz: No such file or directory
*** Reached end of trace for Core: 0 Repeating trace: ./tracefiles/10.trace.xz
Caught signal: 2
