
*** ChampSim Multicore Out-of-Order Simulator ***

Warmup Instructions: 1000000
Simulation Instructions: 10000000
Number of CPUs: 1
LLC sets: 2048
LLC ways: 16
Off-chip DRAM Size: 4096 MB Channels: 1 Width: 64-bit Data Rate: 1600 MT/s

CPU 0 runs ./tracefiles/cactusADM_1495B.trace.xz
CPU 0 Bimodal branch predictor

Warmup complete CPU 0 instructions: 1000003 cycles: 593291 (Simulation time: 0 hr 0 min 2 sec) 

Heartbeat CPU 0 instructions: 10000002 cycles: 23732101 heartbeat IPC: 0.42137 cumulative IPC: 0.388957 (Simulation time: 0 hr 0 min 18 sec) 
Finished CPU 0 instructions: 10000001 cycles: 25220905 cumulative IPC: 0.396497 (Simulation time: 0 hr 0 min 20 sec) 

CPU 0 Branch Prediction Accuracy: 98.4953% MPKI: 0.0348

ChampSim completed all CPUs

Region of Interest Statistics

CPU 0 cumulative IPC: 0.396497 instructions: 10000001 cycles: 25220905
L1D TOTAL     ACCESS:    4165909  HIT:    4020935  MISS:     144974
L1D LOAD      ACCESS:    3021961  HIT:    2908373  MISS:     113588
L1D RFO       ACCESS:    1143948  HIT:    1112562  MISS:      31386
L1D PREFETCH  ACCESS:          0  HIT:          0  MISS:          0
L1D WRITEBACK ACCESS:          0  HIT:          0  MISS:          0
L1D PREFETCH  REQUESTED:          0  ISSUED:          0  FILLED:          0  USEFUL:          0  USELESS:          0
L1I TOTAL     ACCESS:    2606420  HIT:    2606371  MISS:         49
L1I LOAD      ACCESS:    2606420  HIT:    2606371  MISS:         49
L1I RFO       ACCESS:          0  HIT:          0  MISS:          0
L1I PREFETCH  ACCESS:          0  HIT:          0  MISS:          0
L1I WRITEBACK ACCESS:          0  HIT:          0  MISS:          0
L1I PREFETCH  REQUESTED:          0  ISSUED:          0  FILLED:          0  USEFUL:          0  USELESS:          0
L2C TOTAL     ACCESS:     177160  HIT:      77962  MISS:      99198
L2C LOAD      ACCESS:     113636  HIT:      45867  MISS:      67769
L2C RFO       ACCESS:      31386  HIT:          0  MISS:      31386
L2C PREFETCH  ACCESS:          0  HIT:          0  MISS:          0
L2C WRITEBACK ACCESS:      32138  HIT:      32095  MISS:         43
L2C PREFETCH  REQUESTED:          0  ISSUED:          0  FILLED:          0  USEFUL:          0  USELESS:          0
LLC TOTAL     ACCESS:     130634  HIT:      31436  MISS:      99198
LLC LOAD      ACCESS:      67769  HIT:          0  MISS:      67769
LLC RFO       ACCESS:      31386  HIT:          0  MISS:      31386
LLC PREFETCH  ACCESS:          0  HIT:          0  MISS:          0
LLC WRITEBACK ACCESS:      31479  HIT:      31436  MISS:         43
LLC PREFETCH  REQUESTED:          0  ISSUED:          0  FILLED:          0  USEFUL:          0  USELESS:          0
DTLB TOTAL     ACCESS:    2794403  HIT:    2564879  MISS:     229524
DTLB LOAD      ACCESS:    2128132  HIT:    1976508  MISS:     151624
DTLB RFO       ACCESS:     666271  HIT:     588371  MISS:      77900
DTLB PREFETCH  ACCESS:          0  HIT:          0  MISS:          0
DTLB WRITEBACK ACCESS:          0  HIT:          0  MISS:          0
DTLB PREFETCH  REQUESTED:          0  ISSUED:          0  FILLED:          0  USEFUL:          0  USELESS:          0
ITLB TOTAL     ACCESS:    1993551  HIT:    1993549  MISS:          2
ITLB LOAD      ACCESS:    1993551  HIT:    1993549  MISS:          2
ITLB RFO       ACCESS:          0  HIT:          0  MISS:          0
ITLB PREFETCH  ACCESS:          0  HIT:          0  MISS:          0
ITLB WRITEBACK ACCESS:          0  HIT:          0  MISS:          0
ITLB PREFETCH  REQUESTED:          0  ISSUED:          0  FILLED:          0  USEFUL:          0  USELESS:          0
STLB TOTAL     ACCESS:     229526  HIT:     107095  MISS:     122431
STLB LOAD      ACCESS:     151626  HIT:      71420  MISS:      80206
STLB RFO       ACCESS:      77900  HIT:      35675  MISS:      42225
STLB PREFETCH  ACCESS:          0  HIT:          0  MISS:          0
STLB WRITEBACK ACCESS:          0  HIT:          0  MISS:          0
STLB PREFETCH  REQUESTED:          0  ISSUED:          0  FILLED:          0  USEFUL:          0  USELESS:          0
Major fault: 0 Minor fault: 1558

DRAM Statistics
 CHANNEL 0
 RQ ROW_BUFFER_HIT:      57271  ROW_BUFFER_MISS:      41884
 DBUS_CONGESTED:      56198
 WQ ROW_BUFFER_HIT:       2604  ROW_BUFFER_MISS:      19510  FULL:          0

 AVG_CONGESTED_CYCLE: 13
