
*** ChampSim Multicore Out-of-Order Simulator ***

Warmup Instructions: 1000000
Simulation Instructions: 10000000
Number of CPUs: 1
LLC sets: 2048
LLC ways: 16
Off-chip DRAM Size: 4096 MB Channels: 1 Width: 64-bit Data Rate: 1600 MT/s

CPU 0 runs ./tracefiles/gamess_196B.trace.xz
CPU 0 Bimodal branch predictor
sampler set details
set index: 2047
partial tag: 0000000000000000
lru: 0000
reuse bit: 0
trace: 0
valid: 0
********
sampler set details
set index: 1981
partial tag: 0000000000000000
lru: 0000
reuse bit: 0
trace: 0
valid: 0
********
sampler set details
set index: 1915
partial tag: 0000000000000000
lru: 0000
reuse bit: 0
trace: 0
valid: 0
********
sampler set details
set index: 792
partial tag: 0000000000000000
lru: 0000
reuse bit: 0
trace: 0
valid: 0
********
sampler set details
set index: 726
partial tag: 0000000000000000
lru: 0000
reuse bit: 0
trace: 0
valid: 0
********
sampler set details
set index: 660
partial tag: 0000000000000000
lru: 0000
reuse bit: 0
trace: 0
valid: 0
********
sampler set details
set index: 1849
partial tag: 0000000000000000
lru: 0000
reuse bit: 0
trace: 0
valid: 0
********
sampler set details
set index: 594
partial tag: 0000000000000000
lru: 0000
reuse bit: 0
trace: 0
valid: 0
********
sampler set details
set index: 1783
partial tag: 0000000000000000
lru: 0000
reuse bit: 0
trace: 0
valid: 0
********
sampler set details
set index: 528
partial tag: 0000000000000000
lru: 0000
reuse bit: 0
trace: 0
valid: 0
********
sampler set details
set index: 1717
partial tag: 0000000000000000
lru: 0000
reuse bit: 0
trace: 0
valid: 0
********
sampler set details
set index: 462
partial tag: 0000000000000000
lru: 0000
reuse bit: 0
trace: 0
valid: 0
********
sampler set details
set index: 1651
partial tag: 0000000000000000
lru: 0000
reuse bit: 0
trace: 0
valid: 0
********
sampler set details
set index: 396
partial tag: 0000000000000000
lru: 0000
reuse bit: 0
trace: 0
valid: 0
********
sampler set details
set index: 1585
partial tag: 0000000000000000
lru: 0000
reuse bit: 0
trace: 0
valid: 0
********
sampler set details
set index: 330
partial tag: 0000000000000000
lru: 0000
reuse bit: 0
trace: 0
valid: 0
********
sampler set details
set index: 1519
partial tag: 0000000000000000
lru: 0000
reuse bit: 0
trace: 0
valid: 0
********
sampler set details
set index: 264
partial tag: 0000000000000000
lru: 0000
reuse bit: 0
trace: 0
valid: 0
********
sampler set details
set index: 1453
partial tag: 0000000000000000
lru: 0000
reuse bit: 0
trace: 0
valid: 0
********
sampler set details
set index: 198
partial tag: 0000000000000000
lru: 0000
reuse bit: 0
trace: 0
valid: 0
********
sampler set details
set index: 1387
partial tag: 0000000000000000
lru: 0000
reuse bit: 0
trace: 0
valid: 0
********
sampler set details
set index: 132
partial tag: 0000000000000000
lru: 0000
reuse bit: 0
trace: 0
valid: 0
********
sampler set details
set index: 1321
partial tag: 0000000000000000
lru: 0000
reuse bit: 0
trace: 0
valid: 0
********
sampler set details
set index: 66
partial tag: 0000000000000000
lru: 0000
reuse bit: 0
trace: 0
valid: 0
********
sampler set details
set index: 1255
partial tag: 0000000000000000
lru: 0000
reuse bit: 0
trace: 0
valid: 0
********
sampler set details
set index: 0
partial tag: 0000000000000000
lru: 0000
reuse bit: 0
trace: 0
valid: 0
********
sampler set details
set index: 1189
partial tag: 0000000000000000
lru: 0000
reuse bit: 0
trace: 0
valid: 0
********
sampler set details
set index: 858
partial tag: 0000000000000000
lru: 0000
reuse bit: 0
trace: 0
valid: 0
********
sampler set details
set index: 924
partial tag: 0000000000000000
lru: 0000
reuse bit: 0
trace: 0
valid: 0
********
sampler set details
set index: 990
partial tag: 0000000000000000
lru: 0000
reuse bit: 0
trace: 0
valid: 0
********
sampler set details
set index: 1057
partial tag: 0000000000000000
lru: 0000
reuse bit: 0
trace: 0
valid: 0
********
sampler set details
set index: 1123
partial tag: 0000000000000000
lru: 0000
reuse bit: 0
trace: 0
valid: 0
********
sampler set details
set index: 2047
partial tag: 0000000000000000
lru: 0000
reuse bit: 0
trace: 0
valid: 0
********
sampler set details
set index: 1981
partial tag: 0000000110111110
lru: 0000
reuse bit: 1
trace: 1155
valid: 1
********
sampler set details
set index: 1915
partial tag: 0000000000000000
lru: 0000
reuse bit: 0
trace: 0
valid: 0
********
sampler set details
set index: 792
partial tag: 0000000000000000
lru: 0000
reuse bit: 0
trace: 0
valid: 0
********
sampler set details
set index: 726
partial tag: 0000000000000000
lru: 0000
reuse bit: 0
trace: 0
valid: 0
********
sampler set details
set index: 660
partial tag: 0000000000000000
lru: 0000
reuse bit: 0
trace: 0
valid: 0
********
sampler set details
set index: 1849
partial tag: 0000000000000000
lru: 0000
reuse bit: 0
trace: 0
valid: 0
********
sampler set details
set index: 594
partial tag: 0000000000000000
lru: 0000
reuse bit: 0
trace: 0
valid: 0
********
sampler set details
set index: 1783
partial tag: 0000000000000000
lru: 0000
reuse bit: 0
trace: 0
valid: 0
********
sampler set details
set index: 528
partial tag: 0000000000000000
lru: 0000
reuse bit: 0
trace: 0
valid: 0
********
sampler set details
set index: 1717
partial tag: 0000000000000000
lru: 0000
reuse bit: 0
trace: 0
valid: 0
********
sampler set details
set index: 462
partial tag: 0000000000000000
lru: 0000
reuse bit: 0
trace: 0
valid: 0
********
sampler set details
set index: 1651
partial tag: 0000000000000000
lru: 0000
reuse bit: 0
trace: 0
valid: 0
********
sampler set details
set index: 396
partial tag: 0000000000000000
lru: 0000
reuse bit: 0
trace: 0
valid: 0
********
sampler set details
set index: 1585
partial tag: 0000000000000000
lru: 0000
reuse bit: 0
trace: 0
valid: 0
********
sampler set details
set index: 330
partial tag: 0000000000000000
lru: 0000
reuse bit: 0
trace: 0
valid: 0
********
sampler set details
set index: 1519
partial tag: 0000000000000000
lru: 0000
reuse bit: 0
trace: 0
valid: 0
********
sampler set details
set index: 264
partial tag: 0000000000000000
lru: 0000
reuse bit: 0
trace: 0
valid: 0
********
sampler set details
set index: 1453
partial tag: 0000000000000000
lru: 0000
reuse bit: 0
trace: 0
valid: 0
********
sampler set details
set index: 198
partial tag: 0000000000000000
lru: 0000
reuse bit: 0
trace: 0
valid: 0
********
sampler set details
set index: 1387
partial tag: 0000000000000000
lru: 0000
reuse bit: 0
trace: 0
valid: 0
********
sampler set details
set index: 132
partial tag: 0000000000000000
lru: 0000
reuse bit: 0
trace: 0
valid: 0
********
sampler set details
set index: 1321
partial tag: 0000000000000000
lru: 0000
reuse bit: 0
trace: 0
valid: 0
********
sampler set details
set index: 66
partial tag: 0000000000000000
lru: 0000
reuse bit: 0
trace: 0
valid: 0
********
sampler set details
set index: 1255
partial tag: 0000000000000000
lru: 0000
reuse bit: 0
trace: 0
valid: 0
********
sampler set details
set index: 0
partial tag: 0000000000000000
lru: 0000
reuse bit: 0
trace: 0
valid: 0
********
sampler set details
set index: 1189
partial tag: 0000000000000000
lru: 0000
reuse bit: 0
trace: 0
valid: 0
********
sampler set details
set index: 858
partial tag: 0000000000000000
lru: 0000
reuse bit: 0
trace: 0
valid: 0
********
sampler set details
set index: 924
partial tag: 0000000000000000
lru: 0000
reuse bit: 0
trace: 0
valid: 0
********
sampler set details
set index: 990
partial tag: 0000000000000000
lru: 0000
reuse bit: 0
trace: 0
valid: 0
********
sampler set details
set index: 1057
partial tag: 0000000000000000
lru: 0000
reuse bit: 0
trace: 0
valid: 0
********
sampler set details
set index: 1123
partial tag: 0000000000000000
lru: 0000
reuse bit: 0
trace: 0
valid: 0
********
sampler set details
set index: 2047
partial tag: 0000000000000000
lru: 0000
reuse bit: 0
trace: 0
valid: 0
********
sampler set details
set index: 1981
partial tag: 0000000110111110
lru: 0000
reuse bit: 1
trace: 1155
valid: 1
********
sampler set details
set index: 1915
partial tag: 0000000000000000
lru: 0000
reuse bit: 0
trace: 0
valid: 0
********
sampler set details
set index: 792
partial tag: 0000000000000000
lru: 0000
reuse bit: 0
trace: 0
valid: 0
********
sampler set details
set index: 726
partial tag: 0000000000000000
lru: 0000
reuse bit: 0
trace: 0
valid: 0
********
sampler set details
set index: 660
partial tag: 0000000000000000
lru: 0000
reuse bit: 0
trace: 0
valid: 0
********
sampler set details
set index: 1849
partial tag: 0000000000000000
lru: 0000
reuse bit: 0
trace: 0
valid: 0
********
sampler set details
set index: 594
partial tag: 0000000000000000
lru: 0000
reuse bit: 0
trace: 0
valid: 0
********
sampler set details
set index: 1783
partial tag: 0000000000000000
lru: 0000
reuse bit: 0
trace: 0
valid: 0
********
sampler set details
set index: 528
partial tag: 0000000000000000
lru: 0000
reuse bit: 0
trace: 0
valid: 0
********
sampler set details
set index: 1717
partial tag: 0000000000000000
lru: 0000
reuse bit: 0
trace: 0
valid: 0
********
sampler set details
set index: 462
partial tag: 0000000110111110
lru: 0000
reuse bit: 1
trace: 1958
valid: 1
********
sampler set details
set index: 1651
partial tag: 0000000000000000
lru: 0000
reuse bit: 0
trace: 0
valid: 0
********
sampler set details
set index: 396
partial tag: 0000000000000000
lru: 0000
reuse bit: 0
trace: 0
valid: 0
********
sampler set details
set index: 1585
partial tag: 0000000000000000
lru: 0000
reuse bit: 0
trace: 0
valid: 0
********
sampler set details
set index: 330
partial tag: 0000000000000000
lru: 0000
reuse bit: 0
trace: 0
valid: 0
********
sampler set details
set index: 1519
partial tag: 0000000000000000
lru: 0000
reuse bit: 0
trace: 0
valid: 0
********
sampler set details
set index: 264
partial tag: 0000000000000000
lru: 0000
reuse bit: 0
trace: 0
valid: 0
********
sampler set details
set index: 1453
partial tag: 0000000000000000
lru: 0000
reuse bit: 0
trace: 0
valid: 0
********
sampler set details
set index: 198
partial tag: 0000000000000000
lru: 0000
reuse bit: 0
trace: 0
valid: 0
********
sampler set details
set index: 1387
partial tag: 0000000000000000
lru: 0000
reuse bit: 0
trace: 0
valid: 0
********
sampler set details
set index: 132
partial tag: 0000000000000000
lru: 0000
reuse bit: 0
trace: 0
valid: 0
********
sampler set details
set index: 1321
partial tag: 0000000000000000
lru: 0000
reuse bit: 0
trace: 0
valid: 0
********
sampler set details
set index: 66
partial tag: 0000000000000000
lru: 0000
reuse bit: 0
trace: 0
valid: 0
********
sampler set details
set index: 1255
partial tag: 0000000000000000
lru: 0000
reuse bit: 0
trace: 0
valid: 0
********
sampler set details
set index: 0
partial tag: 0000000000000000
lru: 0000
reuse bit: 0
trace: 0
valid: 0
********
sampler set details
set index: 1189
partial tag: 0000000000000000
lru: 0000
reuse bit: 0
trace: 0
valid: 0
********
sampler set details
set index: 858
partial tag: 0000000000000000
lru: 0000
reuse bit: 0
trace: 0
valid: 0
********
sampler set details
set index: 924
partial tag: 0000000000000000
lru: 0000
reuse bit: 0
trace: 0
valid: 0
********
sampler set details
set index: 990
partial tag: 0000000000000000
lru: 0000
reuse bit: 0
trace: 0
valid: 0
********
sampler set details
set index: 1057
partial tag: 0000000000000000
lru: 0000
reuse bit: 0
trace: 0
valid: 0
********
sampler set details
set index: 1123
partial tag: 0000000000000000
lru: 0000
reuse bit: 0
trace: 0
valid: 0
********
sampler set details
set index: 2047
partial tag: 0000000000000000
lru: 0000
reuse bit: 0
trace: 0
valid: 0
********
sampler set details
set index: 1981
partial tag: 0000000110111110
lru: 0000
reuse bit: 1
trace: 1155
valid: 1
********
sampler set details
set index: 1915
partial tag: 0000000110111110
lru: 0000
reuse bit: 1
trace: 467
valid: 1
********
sampler set details
set index: 792
partial tag: 0000000000000000
lru: 0000
reuse bit: 0
trace: 0
valid: 0
********
sampler set details
set index: 726
partial tag: 0000000000000000
lru: 0000
reuse bit: 0
trace: 0
valid: 0
********
sampler set details
set index: 660
partial tag: 0000000000000000
lru: 0000
reuse bit: 0
trace: 0
valid: 0
********
sampler set details
set index: 1849
partial tag: 0000000000000000
lru: 0000
reuse bit: 0
trace: 0
valid: 0
********
sampler set details
set index: 594
partial tag: 0000000000000000
lru: 0000
reuse bit: 0
trace: 0
valid: 0
********
sampler set details
set index: 1783
partial tag: 0000000000000000
lru: 0000
reuse bit: 0
trace: 0
valid: 0
********
sampler set details
set index: 528
partial tag: 0000000000000000
lru: 0000
reuse bit: 0
trace: 0
valid: 0
********
sampler set details
set index: 1717
partial tag: 0000000000000000
lru: 0000
reuse bit: 0
trace: 0
valid: 0
********
sampler set details
set index: 462
partial tag: 0000000110111110
lru: 0000
reuse bit: 1
trace: 1958
valid: 1
********
sampler set details
set index: 1651
partial tag: 0000000000000000
lru: 0000
reuse bit: 0
trace: 0
valid: 0
********
sampler set details
set index: 396
partial tag: 0000000000000000
lru: 0000
reuse bit: 0
trace: 0
valid: 0
********
sampler set details
set index: 1585
partial tag: 0000000000000000
lru: 0000
reuse bit: 0
trace: 0
valid: 0
********
sampler set details
set index: 330
partial tag: 0000000000000000
lru: 0000
reuse bit: 0
trace: 0
valid: 0
********
sampler set details
set index: 1519
partial tag: 0000000000000000
lru: 0000
reuse bit: 0
trace: 0
valid: 0
********
sampler set details
set index: 264
partial tag: 0000000000000000
lru: 0000
reuse bit: 0
trace: 0
valid: 0
********
sampler set details
set index: 1453
partial tag: 0000000000000000
lru: 0000
reuse bit: 0
trace: 0
valid: 0
********
sampler set details
set index: 198
partial tag: 0000000000000000
lru: 0000
reuse bit: 0
trace: 0
valid: 0
********
sampler set details
set index: 1387
partial tag: 0000000000000000
lru: 0000
reuse bit: 0
trace: 0
valid: 0
********
sampler set details
set index: 132
partial tag: 0000000000000000
lru: 0000
reuse bit: 0
trace: 0
valid: 0
********
sampler set details
set index: 1321
partial tag: 0000000000000000
lru: 0000
reuse bit: 0
trace: 0
valid: 0
********
sampler set details
set index: 66
partial tag: 0000000000000000
lru: 0000
reuse bit: 0
trace: 0
valid: 0
********
sampler set details
set index: 1255
partial tag: 0000000000000000
lru: 0000
reuse bit: 0
trace: 0
valid: 0
********
sampler set details
set index: 0
partial tag: 0000000000000000
lru: 0000
reuse bit: 0
trace: 0
valid: 0
********
sampler set details
set index: 1189
partial tag: 0000000000000000
lru: 0000
reuse bit: 0
trace: 0
valid: 0
********
sampler set details
set index: 858
partial tag: 0000000000000000
lru: 0000
reuse bit: 0
trace: 0
valid: 0
********
sampler set details
set index: 924
partial tag: 0000000000000000
lru: 0000
reuse bit: 0
trace: 0
valid: 0
********
sampler set details
set index: 990
partial tag: 0000000000000000
lru: 0000
reuse bit: 0
trace: 0
valid: 0
********
sampler set details
set index: 1057
partial tag: 0000000000000000
lru: 0000
reuse bit: 0
trace: 0
valid: 0
********
sampler set details
set index: 1123
partial tag: 0000000000000000
lru: 0000
reuse bit: 0
trace: 0
valid: 0
********
sampler set details
set index: 2047
partial tag: 0000000000000000
lru: 0000
reuse bit: 0
trace: 0
valid: 0
********
sampler set details
set index: 1981
partial tag: 0000000110111110
lru: 0000
reuse bit: 1
trace: 1155
valid: 1
********
sampler set details
set index: 1915
partial tag: 0000000110111110
lru: 0000
reuse bit: 1
trace: 467
valid: 1
********
sampler set details
set index: 792
partial tag: 0000000000000000
lru: 0000
reuse bit: 0
trace: 0
valid: 0
********
sampler set details
set index: 726
partial tag: 0000000000000000
lru: 0000
reuse bit: 0
trace: 0
valid: 0
********
sampler set details
set index: 660
partial tag: 0000000000000000
lru: 0000
reuse bit: 0
trace: 0
valid: 0
********
sampler set details
set index: 1849
partial tag: 0000000000000000
lru: 0000
reuse bit: 0
trace: 0
valid: 0
********
sampler set details
set index: 594
partial tag: 0000000000000000
lru: 0000
reuse bit: 0
trace: 0
valid: 0
********
sampler set details
set index: 1783
partial tag: 0000000000000000
lru: 0000
reuse bit: 0
trace: 0
valid: 0
********
sampler set details
set index: 528
partial tag: 0000000000000000
lru: 0000
reuse bit: 0
trace: 0
valid: 0
********
sampler set details
set index: 1717
partial tag: 0000000000000000
lru: 0000
reuse bit: 0
trace: 0
valid: 0
********
sampler set details
set index: 462
partial tag: 0000000110111110
lru: 0000
reuse bit: 1
trace: 1958
valid: 1
********
sampler set details
set index: 1651
partial tag: 0000000000000000
lru: 0000
reuse bit: 0
trace: 0
valid: 0
********
sampler set details
set index: 396
partial tag: 0000000000000000
lru: 0000
reuse bit: 0
trace: 0
valid: 0
********
sampler set details
set index: 1585
partial tag: 0000000000000000
lru: 0000
reuse bit: 0
trace: 0
valid: 0
********
sampler set details
set index: 330
partial tag: 0000000000000000
lru: 0000
reuse bit: 0
trace: 0
valid: 0
********
sampler set details
set index: 1519
partial tag: 0000000000000000
lru: 0000
reuse bit: 0
trace: 0
valid: 0
********
sampler set details
set index: 264
partial tag: 0000000000000000
lru: 0000
reuse bit: 0
trace: 0
valid: 0
********
sampler set details
set index: 1453
partial tag: 0000000000000000
lru: 0000
reuse bit: 0
trace: 0
valid: 0
********
sampler set details
set index: 198
partial tag: 0000000000000000
lru: 0000
reuse bit: 0
trace: 0
valid: 0
********
sampler set details
set index: 1387
partial tag: 0000000000000000
lru: 0000
reuse bit: 0
trace: 0
valid: 0
********
sampler set details
set index: 132
partial tag: 0000000000000000
lru: 0000
reuse bit: 0
trace: 0
valid: 0
********
sampler set details
set index: 1321
partial tag: 0000000110111110
lru: 0000
reuse bit: 1
trace: 412
valid: 1
********
sampler set details
set index: 66
partial tag: 0000000000000000
lru: 0000
reuse bit: 0
trace: 0
valid: 0
********
sampler set details
set index: 1255
partial tag: 0000000000000000
lru: 0000
reuse bit: 0
trace: 0
valid: 0
********
sampler set details
set index: 0
partial tag: 0000000000000000
lru: 0000
reuse bit: 0
trace: 0
valid: 0
********
sampler set details
set index: 1189
partial tag: 0000000000000000
lru: 0000
reuse bit: 0
trace: 0
valid: 0
********
sampler set details
set index: 858
partial tag: 0000000000000000
lru: 0000
reuse bit: 0
trace: 0
valid: 0
********
sampler set details
set index: 924
partial tag: 0000000000000000
lru: 0000
reuse bit: 0
trace: 0
valid: 0
********
sampler set details
set index: 990
partial tag: 0000000000000000
lru: 0000
reuse bit: 0
trace: 0
valid: 0
********
sampler set details
set index: 1057
partial tag: 0000000000000000
lru: 0000
reuse bit: 0
trace: 0
valid: 0
********
sampler set details
set index: 1123
partial tag: 0000000000000000
lru: 0000
reuse bit: 0
trace: 0
valid: 0
********
sampler set details
set index: 2047
partial tag: 0000000000000000
lru: 0000
reuse bit: 0
trace: 0
valid: 0
********
sampler set details
set index: 1981
partial tag: 0000000110111110
lru: 0000
reuse bit: 1
trace: 1155
valid: 1
********
sampler set details
set index: 1915
partial tag: 0000000110111110
lru: 0000
reuse bit: 1
trace: 467
valid: 1
********
sampler set details
set index: 792
partial tag: 0000000000000000
lru: 0000
reuse bit: 0
trace: 0
valid: 0
********
sampler set details
set index: 726
partial tag: 0000000000000000
lru: 0000
reuse bit: 0
trace: 0
valid: 0
********
sampler set details
set index: 660
partial tag: 0000000000000000
lru: 0000
reuse bit: 0
trace: 0
valid: 0
********
sampler set details
set index: 1849
partial tag: 0000000000000000
lru: 0000
reuse bit: 0
trace: 0
valid: 0
********
sampler set details
set index: 594
partial tag: 0000000000000000
lru: 0000
reuse bit: 0
trace: 0
valid: 0
********
sampler set details
set index: 1783
partial tag: 0000000000000000
lru: 0000
reuse bit: 0
trace: 0
valid: 0
********
sampler set details
set index: 528
partial tag: 0000000000000000
lru: 0000
reuse bit: 0
trace: 0
valid: 0
********
sampler set details
set index: 1717
partial tag: 0000000000000000
lru: 0000
reuse bit: 0
trace: 0
valid: 0
********
sampler set details
set index: 462
partial tag: 0000000110111110
lru: 0000
reuse bit: 1
trace: 1958
valid: 1
********
sampler set details
set index: 1651
partial tag: 0000000000000000
lru: 0000
reuse bit: 0
trace: 0
valid: 0
********
sampler set details
set index: 396
partial tag: 0000000000000000
lru: 0000
reuse bit: 0
trace: 0
valid: 0
********
sampler set details
set index: 1585
partial tag: 0000000000000000
lru: 0000
reuse bit: 0
trace: 0
valid: 0
********
sampler set details
set index: 330
partial tag: 0000000000000000
lru: 0000
reuse bit: 0
trace: 0
valid: 0
********
sampler set details
set index: 1519
partial tag: 0000000000000000
lru: 0000
reuse bit: 0
trace: 0
valid: 0
********
sampler set details
set index: 264
partial tag: 0000000000000000
lru: 0000
reuse bit: 0
trace: 0
valid: 0
********
sampler set details
set index: 1453
partial tag: 0000000000000000
lru: 0000
reuse bit: 0
trace: 0
valid: 0
********
sampler set details
set index: 198
partial tag: 0000000000000000
lru: 0000
reuse bit: 0
trace: 0
valid: 0
********
sampler set details
set index: 1387
partial tag: 0000000000000000
lru: 0000
reuse bit: 0
trace: 0
valid: 0
********
sampler set details
set index: 132
partial tag: 0000000000000000
lru: 0000
reuse bit: 0
trace: 0
valid: 0
********
sampler set details
set index: 1321
partial tag: 0000000110111110
lru: 0000
reuse bit: 1
trace: 412
valid: 1
********
sampler set details
set index: 66
partial tag: 0000000000000000
lru: 0000
reuse bit: 0
trace: 0
valid: 0
********
sampler set details
set index: 1255
partial tag: 0000000000000000
lru: 0000
reuse bit: 0
trace: 0
valid: 0
********
sampler set details
set index: 0
partial tag: 0000000000000000
lru: 0000
reuse bit: 0
trace: 0
valid: 0
********
sampler set details
set index: 1189
partial tag: 0000000000000000
lru: 0000
reuse bit: 0
trace: 0
valid: 0
********
sampler set details
set index: 858
partial tag: 0000000000000000
lru: 0000
reuse bit: 0
trace: 0
valid: 0
********
sampler set details
set index: 924
partial tag: 0000000000000000
lru: 0000
reuse bit: 0
trace: 0
valid: 0
********
sampler set details
set index: 990
partial tag: 0000000000000000
lru: 0000
reuse bit: 0
trace: 0
valid: 0
********
sampler set details
set index: 1057
partial tag: 0000000110111110
lru: 0000
reuse bit: 1
trace: 1899
valid: 1
********
sampler set details
set index: 1123
partial tag: 0000000000000000
lru: 0000
reuse bit: 0
trace: 0
valid: 0
********
sampler set details
set index: 2047
partial tag: 0000000000000000
lru: 0000
reuse bit: 0
trace: 0
valid: 0
********
sampler set details
set index: 1981
partial tag: 0000000110111110
lru: 0000
reuse bit: 1
trace: 1155
valid: 1
********
sampler set details
set index: 1915
partial tag: 0000000110111110
lru: 0000
reuse bit: 1
trace: 1889
valid: 1
********
sampler set details
set index: 792
partial tag: 0000000000000000
lru: 0000
reuse bit: 0
trace: 0
valid: 0
********
sampler set details
set index: 726
partial tag: 0000000000000000
lru: 0000
reuse bit: 0
trace: 0
valid: 0
********
sampler set details
set index: 660
partial tag: 0000000000000000
lru: 0000
reuse bit: 0
trace: 0
valid: 0
********
sampler set details
set index: 1849
partial tag: 0000000000000000
lru: 0000
reuse bit: 0
trace: 0
valid: 0
********
sampler set details
set index: 594
partial tag: 0000000000000000
lru: 0000
reuse bit: 0
trace: 0
valid: 0
********
sampler set details
set index: 1783
partial tag: 0000000000000000
lru: 0000
reuse bit: 0
trace: 0
valid: 0
********
sampler set details
set index: 528
partial tag: 0000000000000000
lru: 0000
reuse bit: 0
trace: 0
valid: 0
********
sampler set details
set index: 1717
partial tag: 0000000000000000
lru: 0000
reuse bit: 0
trace: 0
valid: 0
********
sampler set details
set index: 462
partial tag: 0000000110111110
lru: 0000
reuse bit: 1
trace: 1958
valid: 1
********
sampler set details
set index: 1651
partial tag: 0000000000000000
lru: 0000
reuse bit: 0
trace: 0
valid: 0
********
sampler set details
set index: 396
partial tag: 0000000000000000
lru: 0000
reuse bit: 0
trace: 0
valid: 0
********
sampler set details
set index: 1585
partial tag: 0000000000000000
lru: 0000
reuse bit: 0
trace: 0
valid: 0
********
sampler set details
set index: 330
partial tag: 0000000000000000
lru: 0000
reuse bit: 0
trace: 0
valid: 0
********
sampler set details
set index: 1519
partial tag: 0000000000000000
lru: 0000
reuse bit: 0
trace: 0
valid: 0
********
sampler set details
set index: 264
partial tag: 0000000000000000
lru: 0000
reuse bit: 0
trace: 0
valid: 0
********
sampler set details
set index: 1453
partial tag: 0000000000000000
lru: 0000
reuse bit: 0
trace: 0
valid: 0
********
sampler set details
set index: 198
partial tag: 0000000000000000
lru: 0000
reuse bit: 0
trace: 0
valid: 0
********
sampler set details
set index: 1387
partial tag: 0000000000000000
lru: 0000
reuse bit: 0
trace: 0
valid: 0
********
sampler set details
set index: 132
partial tag: 0000000000000000
lru: 0000
reuse bit: 0
trace: 0
valid: 0
********
sampler set details
set index: 1321
partial tag: 0000000110111110
lru: 0000
reuse bit: 1
trace: 412
valid: 1
********
sampler set details
set index: 66
partial tag: 0000000000000000
lru: 0000
reuse bit: 0
trace: 0
valid: 0
********
sampler set details
set index: 1255
partial tag: 0000000000000000
lru: 0000
reuse bit: 0
trace: 0
valid: 0
********
sampler set details
set index: 0
partial tag: 0000000000000000
lru: 0000
reuse bit: 0
trace: 0
valid: 0
********
sampler set details
set index: 1189
partial tag: 0000000000000000
lru: 0000
reuse bit: 0
trace: 0
valid: 0
********
sampler set details
set index: 858
partial tag: 0000000000000000
lru: 0000
reuse bit: 0
trace: 0
valid: 0
********
sampler set details
set index: 924
partial tag: 0000000000000000
lru: 0000
reuse bit: 0
trace: 0
valid: 0
********
sampler set details
set index: 990
partial tag: 0000000000000000
lru: 0000
reuse bit: 0
trace: 0
valid: 0
********
sampler set details
set index: 1057
partial tag: 0000000110111110
lru: 0000
reuse bit: 1
trace: 1899
valid: 1
********
sampler set details
set index: 1123
partial tag: 0000000000000000
lru: 0000
reuse bit: 0
trace: 0
valid: 0
********
sampler set details
set index: 2047
partial tag: 0000000000000000
lru: 0000
reuse bit: 0
trace: 0
valid: 0
********
sampler set details
set index: 1981
partial tag: 0000000110111110
lru: 0000
reuse bit: 1
trace: 1155
valid: 1
********
sampler set details
set index: 1915
partial tag: 0000000110111110
lru: 0000
reuse bit: 1
trace: 668
valid: 1
********
sampler set details
set index: 792
partial tag: 0000000000000000
lru: 0000
reuse bit: 0
trace: 0
valid: 0
********
sampler set details
set index: 726
partial tag: 0000000000000000
lru: 0000
reuse bit: 0
trace: 0
valid: 0
********
sampler set details
set index: 660
partial tag: 0000000000000000
lru: 0000
reuse bit: 0
trace: 0
valid: 0
********
sampler set details
set index: 1849
partial tag: 0000000000000000
lru: 0000
reuse bit: 0
trace: 0
valid: 0
********
sampler set details
set index: 594
partial tag: 0000000000000000
lru: 0000
reuse bit: 0
trace: 0
valid: 0
********
sampler set details
set index: 1783
partial tag: 0000000000000000
lru: 0000
reuse bit: 0
trace: 0
valid: 0
********
sampler set details
set index: 528
partial tag: 0000000000000000
lru: 0000
reuse bit: 0
trace: 0
valid: 0
********
sampler set details
set index: 1717
partial tag: 0000000000000000
lru: 0000
reuse bit: 0
trace: 0
valid: 0
********
sampler set details
set index: 462
partial tag: 0000000110111110
lru: 0000
reuse bit: 1
trace: 1958
valid: 1
********
sampler set details
set index: 1651
partial tag: 0000000000000000
lru: 0000
reuse bit: 0
trace: 0
valid: 0
********
sampler set details
set index: 396
partial tag: 0000000000000000
lru: 0000
reuse bit: 0
trace: 0
valid: 0
********
sampler set details
set index: 1585
partial tag: 0000000000000000
lru: 0000
reuse bit: 0
trace: 0
valid: 0
********
sampler set details
set index: 330
partial tag: 0000000000000000
lru: 0000
reuse bit: 0
trace: 0
valid: 0
********
sampler set details
set index: 1519
partial tag: 0000000000000000
lru: 0000
reuse bit: 0
trace: 0
valid: 0
********
sampler set details
set index: 264
partial tag: 0000000000000000
lru: 0000
reuse bit: 0
trace: 0
valid: 0
********
sampler set details
set index: 1453
partial tag: 0000000000000000
lru: 0000
reuse bit: 0
trace: 0
valid: 0
********
sampler set details
set index: 198
partial tag: 0000000000000000
lru: 0000
reuse bit: 0
trace: 0
valid: 0
********
sampler set details
set index: 1387
partial tag: 0000000000000000
lru: 0000
reuse bit: 0
trace: 0
valid: 0
********
sampler set details
set index: 132
partial tag: 0000000000000000
lru: 0000
reuse bit: 0
trace: 0
valid: 0
********
sampler set details
set index: 1321
partial tag: 0000000110111110
lru: 0000
reuse bit: 1
trace: 412
valid: 1
********
sampler set details
set index: 66
partial tag: 0000000000000000
lru: 0000
reuse bit: 0
trace: 0
valid: 0
********
sampler set details
set index: 1255
partial tag: 0000000000000000
lru: 0000
reuse bit: 0
trace: 0
valid: 0
********
sampler set details
set index: 0
partial tag: 0000000000000000
lru: 0000
reuse bit: 0
trace: 0
valid: 0
********
sampler set details
set index: 1189
partial tag: 0000000000000000
lru: 0000
reuse bit: 0
trace: 0
valid: 0
********
sampler set details
set index: 858
partial tag: 0000000000000000
lru: 0000
reuse bit: 0
trace: 0
valid: 0
********
sampler set details
set index: 924
partial tag: 0000000000000000
lru: 0000
reuse bit: 0
trace: 0
valid: 0
********
sampler set details
set index: 990
partial tag: 0000000000000000
lru: 0000
reuse bit: 0
trace: 0
valid: 0
********
sampler set details
set index: 1057
partial tag: 0000000110111110
lru: 0000
reuse bit: 1
trace: 1899
valid: 1
********
sampler set details
set index: 1123
partial tag: 0000000000000000
lru: 0000
reuse bit: 0
trace: 0
valid: 0
********
sampler set details
set index: 2047
partial tag: 0000000000000000
lru: 0000
reuse bit: 0
trace: 0
valid: 0
********
sampler set details
set index: 1981
partial tag: 0000000110111110
lru: 0000
reuse bit: 1
trace: 1155
valid: 1
********
sampler set details
set index: 1915
partial tag: 0000000110111110
lru: 0000
reuse bit: 1
trace: 668
valid: 1
********
sampler set details
set index: 792
partial tag: 0000000000000000
lru: 0000
reuse bit: 0
trace: 0
valid: 0
********
sampler set details
set index: 726
partial tag: 0000000000000000
lru: 0000
reuse bit: 0
trace: 0
valid: 0
********
sampler set details
set index: 660
partial tag: 0000000000000000
lru: 0000
reuse bit: 0
trace: 0
valid: 0
********
sampler set details
set index: 1849
partial tag: 0000000000000000
lru: 0000
reuse bit: 0
trace: 0
valid: 0
********
sampler set details
set index: 594
partial tag: 0000000000000000
lru: 0000
reuse bit: 0
trace: 0
valid: 0
********
sampler set details
set index: 1783
partial tag: 0000000000000000
lru: 0000
reuse bit: 0
trace: 0
valid: 0
********
sampler set details
set index: 528
partial tag: 0000000110111110
lru: 0000
reuse bit: 1
trace: 1176
valid: 1
********
sampler set details
set index: 1717
partial tag: 0000000000000000
lru: 0000
reuse bit: 0
trace: 0
valid: 0
********
sampler set details
set index: 462
partial tag: 0000000110111110
lru: 0000
reuse bit: 1
trace: 1958
valid: 1
********
sampler set details
set index: 1651
partial tag: 0000000000000000
lru: 0000
reuse bit: 0
trace: 0
valid: 0
********
sampler set details
set index: 396
partial tag: 0000000000000000
lru: 0000
reuse bit: 0
trace: 0
valid: 0
********
sampler set details
set index: 1585
partial tag: 0000000000000000
lru: 0000
reuse bit: 0
trace: 0
valid: 0
********
sampler set details
set index: 330
partial tag: 0000000000000000
lru: 0000
reuse bit: 0
trace: 0
valid: 0
********
sampler set details
set index: 1519
partial tag: 0000000000000000
lru: 0000
reuse bit: 0
trace: 0
valid: 0
********
sampler set details
set index: 264
partial tag: 0000000000000000
lru: 0000
reuse bit: 0
trace: 0
valid: 0
********
sampler set details
set index: 1453
partial tag: 0000000000000000
lru: 0000
reuse bit: 0
trace: 0
valid: 0
********
sampler set details
set index: 198
partial tag: 0000000000000000
lru: 0000
reuse bit: 0
trace: 0
valid: 0
********
sampler set details
set index: 1387
partial tag: 0000000000000000
lru: 0000
reuse bit: 0
trace: 0
valid: 0
********
sampler set details
set index: 132
partial tag: 0000000000000000
lru: 0000
reuse bit: 0
trace: 0
valid: 0
********
sampler set details
set index: 1321
partial tag: 0000000110111110
lru: 0000
reuse bit: 1
trace: 412
valid: 1
********
sampler set details
set index: 66
partial tag: 0000000000000000
lru: 0000
reuse bit: 0
trace: 0
valid: 0
********
sampler set details
set index: 1255
partial tag: 0000000000000000
lru: 0000
reuse bit: 0
trace: 0
valid: 0
********
sampler set details
set index: 0
partial tag: 0000000000000000
lru: 0000
reuse bit: 0
trace: 0
valid: 0
********
sampler set details
set index: 1189
partial tag: 0000000000000000
lru: 0000
reuse bit: 0
trace: 0
valid: 0
********
sampler set details
set index: 858
partial tag: 0000000000000000
lru: 0000
reuse bit: 0
trace: 0
valid: 0
********
sampler set details
set index: 924
partial tag: 0000000000000000
lru: 0000
reuse bit: 0
trace: 0
valid: 0
********
sampler set details
set index: 990
partial tag: 0000000000000000
lru: 0000
reuse bit: 0
trace: 0
valid: 0
********
sampler set details
set index: 1057
partial tag: 0000000110111110
lru: 0000
reuse bit: 1
trace: 1899
valid: 1
********
sampler set details
set index: 1123
partial tag: 0000000000000000
lru: 0000
reuse bit: 0
trace: 0
valid: 0
********
sampler set details
set index: 2047
partial tag: 0000000000000000
lru: 0000
reuse bit: 0
trace: 0
valid: 0
********
sampler set details
set index: 1981
partial tag: 0000000110111110
lru: 0000
reuse bit: 1
trace: 1155
valid: 1
********
sampler set details
set index: 1915
partial tag: 0000000110111110
lru: 0000
reuse bit: 1
trace: 668
valid: 1
********
sampler set details
set index: 792
partial tag: 0000000000000000
lru: 0000
reuse bit: 0
trace: 0
valid: 0
********
sampler set details
set index: 726
partial tag: 0000000000000000
lru: 0000
reuse bit: 0
trace: 0
valid: 0
********
sampler set details
set index: 660
partial tag: 0000000000000000
lru: 0000
reuse bit: 0
trace: 0
valid: 0
********
sampler set details
set index: 1849
partial tag: 0000000000000000
lru: 0000
reuse bit: 0
trace: 0
valid: 0
********
sampler set details
set index: 594
partial tag: 0000000000000000
lru: 0000
reuse bit: 0
trace: 0
valid: 0
********
sampler set details
set index: 1783
partial tag: 0000000000000000
lru: 0000
reuse bit: 0
trace: 0
valid: 0
********
sampler set details
set index: 528
partial tag: 0000000110111110
lru: 0000
reuse bit: 1
trace: 1176
valid: 1
********
sampler set details
set index: 1717
partial tag: 0000000000000000
lru: 0000
reuse bit: 0
trace: 0
valid: 0
********
sampler set details
set index: 462
partial tag: 0000000110111110
lru: 0000
reuse bit: 1
trace: 1958
valid: 1
********
sampler set details
set index: 1651
partial tag: 0000000000000000
lru: 0000
reuse bit: 0
trace: 0
valid: 0
********
sampler set details
set index: 396
partial tag: 0000000000000000
lru: 0000
reuse bit: 0
trace: 0
valid: 0
********
sampler set details
set index: 1585
partial tag: 0000000000000000
lru: 0000
reuse bit: 0
trace: 0
valid: 0
********
sampler set details
set index: 330
partial tag: 0000000000000000
lru: 0000
reuse bit: 0
trace: 0
valid: 0
********
sampler set details
set index: 1519
partial tag: 0000000000000000
lru: 0000
reuse bit: 0
trace: 0
valid: 0
********
sampler set details
set index: 264
partial tag: 0000000000000000
lru: 0000
reuse bit: 0
trace: 0
valid: 0
********
sampler set details
set index: 1453
partial tag: 0000000000000000
lru: 0000
reuse bit: 0
trace: 0
valid: 0
********
sampler set details
set index: 198
partial tag: 0000000000000000
lru: 0000
reuse bit: 0
trace: 0
valid: 0
********
sampler set details
set index: 1387
partial tag: 0000000000000000
lru: 0000
reuse bit: 0
trace: 0
valid: 0
********
sampler set details
set index: 132
partial tag: 0000000000000000
lru: 0000
reuse bit: 0
trace: 0
valid: 0
********
sampler set details
set index: 1321
partial tag: 0000000110111110
lru: 0000
reuse bit: 1
trace: 412
valid: 1
********
sampler set details
set index: 66
partial tag: 0000000000000000
lru: 0000
reuse bit: 0
trace: 0
valid: 0
********
sampler set details
set index: 1255
partial tag: 0000000110111110
lru: 0000
reuse bit: 1
trace: 1249
valid: 1
********
sampler set details
set index: 0
partial tag: 0000000000000000
lru: 0000
reuse bit: 0
trace: 0
valid: 0
********
sampler set details
set index: 1189
partial tag: 0000000000000000
lru: 0000
reuse bit: 0
trace: 0
valid: 0
********
sampler set details
set index: 858
partial tag: 0000000000000000
lru: 0000
reuse bit: 0
trace: 0
valid: 0
********
sampler set details
set index: 924
partial tag: 0000000000000000
lru: 0000
reuse bit: 0
trace: 0
valid: 0
********
sampler set details
set index: 990
partial tag: 0000000000000000
lru: 0000
reuse bit: 0
trace: 0
valid: 0
********
sampler set details
set index: 1057
partial tag: 0000000110111110
lru: 0000
reuse bit: 1
trace: 1899
valid: 1
********
sampler set details
set index: 1123
partial tag: 0000000000000000
lru: 0000
reuse bit: 0
trace: 0
valid: 0
********
sampler set details
set index: 2047
partial tag: 0000000000000000
lru: 0000
reuse bit: 0
trace: 0
valid: 0
********
sampler set details
set index: 1981
partial tag: 0000000110111110
lru: 0000
reuse bit: 1
trace: 1155
valid: 1
********
sampler set details
set index: 1915
partial tag: 0000000110111110
lru: 0000
reuse bit: 1
trace: 668
valid: 1
********
sampler set details
set index: 792
partial tag: 0000000000000000
lru: 0000
reuse bit: 0
trace: 0
valid: 0
********
sampler set details
set index: 726
partial tag: 0000000000000000
lru: 0000
reuse bit: 0
trace: 0
valid: 0
********
sampler set details
set index: 660
partial tag: 0000000000000000
lru: 0000
reuse bit: 0
trace: 0
valid: 0
********
sampler set details
set index: 1849
partial tag: 0000000000000000
lru: 0000
reuse bit: 0
trace: 0
valid: 0
********
sampler set details
set index: 594
partial tag: 0000000000000000
lru: 0000
reuse bit: 0
trace: 0
valid: 0
********
sampler set details
set index: 1783
partial tag: 0000000000000000
lru: 0000
reuse bit: 0
trace: 0
valid: 0
********
sampler set details
set index: 528
partial tag: 0000000110111110
lru: 0000
reuse bit: 1
trace: 1176
valid: 1
********
sampler set details
set index: 1717
partial tag: 0000000000000000
lru: 0000
reuse bit: 0
trace: 0
valid: 0
********
sampler set details
set index: 462
partial tag: 0000000110111110
lru: 0000
reuse bit: 1
trace: 1958
valid: 1
********
sampler set details
set index: 1651
partial tag: 0000000000000000
lru: 0000
reuse bit: 0
trace: 0
valid: 0
********
sampler set details
set index: 396
partial tag: 0000000000000000
lru: 0000
reuse bit: 0
trace: 0
valid: 0
********
sampler set details
set index: 1585
partial tag: 0000000000000000
lru: 0000
reuse bit: 0
trace: 0
valid: 0
********
sampler set details
set index: 330
partial tag: 0000000000000000
lru: 0000
reuse bit: 0
trace: 0
valid: 0
********
sampler set details
set index: 1519
partial tag: 0000000000000000
lru: 0000
reuse bit: 0
trace: 0
valid: 0
********
sampler set details
set index: 264
partial tag: 0000000000000000
lru: 0000
reuse bit: 0
trace: 0
valid: 0
********
sampler set details
set index: 1453
partial tag: 0000000000000000
lru: 0000
reuse bit: 0
trace: 0
valid: 0
********
sampler set details
set index: 198
partial tag: 0000000000000000
lru: 0000
reuse bit: 0
trace: 0
valid: 0
********
sampler set details
set index: 1387
partial tag: 0000000000000000
lru: 0000
reuse bit: 0
trace: 0
valid: 0
********
sampler set details
set index: 132
partial tag: 0000000000000000
lru: 0000
reuse bit: 0
trace: 0
valid: 0
********
sampler set details
set index: 1321
partial tag: 0000000110111110
lru: 0000
reuse bit: 1
trace: 412
valid: 1
********
sampler set details
set index: 66
partial tag: 0000000110111110
lru: 0000
reuse bit: 1
trace: 2032
valid: 1
********
sampler set details
set index: 1255
partial tag: 0000000110111110
lru: 0000
reuse bit: 1
trace: 1249
valid: 1
********
sampler set details
set index: 0
partial tag: 0000000000000000
lru: 0000
reuse bit: 0
trace: 0
valid: 0
********
sampler set details
set index: 1189
partial tag: 0000000000000000
lru: 0000
reuse bit: 0
trace: 0
valid: 0
********
sampler set details
set index: 858
partial tag: 0000000000000000
lru: 0000
reuse bit: 0
trace: 0
valid: 0
********
sampler set details
set index: 924
partial tag: 0000000000000000
lru: 0000
reuse bit: 0
trace: 0
valid: 0
********
sampler set details
set index: 990
partial tag: 0000000000000000
lru: 0000
reuse bit: 0
trace: 0
valid: 0
********
sampler set details
set index: 1057
partial tag: 0000000110111110
lru: 0000
reuse bit: 1
trace: 1899
valid: 1
********
sampler set details
set index: 1123
partial tag: 0000000000000000
lru: 0000
reuse bit: 0
trace: 0
valid: 0
********
sampler set details
set index: 2047
partial tag: 0000000000000000
lru: 0000
reuse bit: 0
trace: 0
valid: 0
********
sampler set details
set index: 1981
partial tag: 0000000110111110
lru: 0000
reuse bit: 1
trace: 1155
valid: 1
********
sampler set details
set index: 1915
partial tag: 0000000110111110
lru: 0000
reuse bit: 1
trace: 668
valid: 1
********
sampler set details
set index: 792
partial tag: 0000000000000000
lru: 0000
reuse bit: 0
trace: 0
valid: 0
********
sampler set details
set index: 726
partial tag: 0000000000000000
lru: 0000
reuse bit: 0
trace: 0
valid: 0
********
sampler set details
set index: 660
partial tag: 0000000000000000
lru: 0000
reuse bit: 0
trace: 0
valid: 0
********
sampler set details
set index: 1849
partial tag: 0000000000000000
lru: 0000
reuse bit: 0
trace: 0
valid: 0
********
sampler set details
set index: 594
partial tag: 0000000000000000
lru: 0000
reuse bit: 0
trace: 0
valid: 0
********
sampler set details
set index: 1783
partial tag: 0000000000000000
lru: 0000
reuse bit: 0
trace: 0
valid: 0
********
sampler set details
set index: 528
partial tag: 0000000110111110
lru: 0000
reuse bit: 1
trace: 1176
valid: 1
********
sampler set details
set index: 1717
partial tag: 0000000000000000
lru: 0000
reuse bit: 0
trace: 0
valid: 0
********
sampler set details
set index: 462
partial tag: 0000000110111110
lru: 0000
reuse bit: 1
trace: 1958
valid: 1
********
sampler set details
set index: 1651
partial tag: 0000000000000000
lru: 0000
reuse bit: 0
trace: 0
valid: 0
********
sampler set details
set index: 396
partial tag: 0000000000000000
lru: 0000
reuse bit: 0
trace: 0
valid: 0
********
sampler set details
set index: 1585
partial tag: 0000000000000000
lru: 0000
reuse bit: 0
trace: 0
valid: 0
********
sampler set details
set index: 330
partial tag: 0000000000000000
lru: 0000
reuse bit: 0
trace: 0
valid: 0
********
sampler set details
set index: 1519
partial tag: 0000000000000000
lru: 0000
reuse bit: 0
trace: 0
valid: 0
********
sampler set details
set index: 264
partial tag: 0000000000000000
lru: 0000
reuse bit: 0
trace: 0
valid: 0
********
sampler set details
set index: 1453
partial tag: 0000000000000000
lru: 0000
reuse bit: 0
trace: 0
valid: 0
********
sampler set details
set index: 198
partial tag: 0000000110111110
lru: 0000
reuse bit: 1
trace: 193
valid: 1
********
sampler set details
set index: 1387
partial tag: 0000000000000000
lru: 0000
reuse bit: 0
trace: 0
valid: 0
********
sampler set details
set index: 132
partial tag: 0000000000000000
lru: 0000
reuse bit: 0
trace: 0
valid: 0
********
sampler set details
set index: 1321
partial tag: 0000000110111110
lru: 0000
reuse bit: 1
trace: 412
valid: 1
********
sampler set details
set index: 66
partial tag: 0000000110111110
lru: 0000
reuse bit: 1
trace: 2032
valid: 1
********
sampler set details
set index: 1255
partial tag: 0000000110111110
lru: 0000
reuse bit: 1
trace: 1249
valid: 1
********
sampler set details
set index: 0
partial tag: 0000000000000000
lru: 0000
reuse bit: 0
trace: 0
valid: 0
********
sampler set details
set index: 1189
partial tag: 0000000000000000
lru: 0000
reuse bit: 0
trace: 0
valid: 0
********
sampler set details
set index: 858
partial tag: 0000000000000000
lru: 0000
reuse bit: 0
trace: 0
valid: 0
********
sampler set details
set index: 924
partial tag: 0000000000000000
lru: 0000
reuse bit: 0
trace: 0
valid: 0
********
sampler set details
set index: 990
partial tag: 0000000000000000
lru: 0000
reuse bit: 0
trace: 0
valid: 0
********
sampler set details
set index: 1057
partial tag: 0000000110111110
lru: 0000
reuse bit: 1
trace: 1899
valid: 1
********
sampler set details
set index: 1123
partial tag: 0000000000000000
lru: 0000
reuse bit: 0
trace: 0
valid: 0
********
sampler set details
set index: 2047
partial tag: 0000000000000000
lru: 0000
reuse bit: 0
trace: 0
valid: 0
********
sampler set details
set index: 1981
partial tag: 0000000110111110
lru: 0000
reuse bit: 1
trace: 1155
valid: 1
********
sampler set details
set index: 1915
partial tag: 0000000110111110
lru: 0000
reuse bit: 1
trace: 668
valid: 1
********
sampler set details
set index: 792
partial tag: 0000000000000000
lru: 0000
reuse bit: 0
trace: 0
valid: 0
********
sampler set details
set index: 726
partial tag: 0000000000000000
lru: 0000
reuse bit: 0
trace: 0
valid: 0
********
sampler set details
set index: 660
partial tag: 0000000000000000
lru: 0000
reuse bit: 0
trace: 0
valid: 0
********
sampler set details
set index: 1849
partial tag: 0000000000000000
lru: 0000
reuse bit: 0
trace: 0
valid: 0
********
sampler set details
set index: 594
partial tag: 0000000000000000
lru: 0000
reuse bit: 0
trace: 0
valid: 0
********
sampler set details
set index: 1783
partial tag: 0000000000000000
lru: 0000
reuse bit: 0
trace: 0
valid: 0
********
sampler set details
set index: 528
partial tag: 0000000110111110
lru: 0000
reuse bit: 1
trace: 1176
valid: 1
********
sampler set details
set index: 1717
partial tag: 0000000000000000
lru: 0000
reuse bit: 0
trace: 0
valid: 0
********
sampler set details
set index: 462
partial tag: 0000000110111110
lru: 0000
reuse bit: 1
trace: 1958
valid: 1
********
sampler set details
set index: 1651
partial tag: 0000000000000000
lru: 0000
reuse bit: 0
trace: 0
valid: 0
********
sampler set details
set index: 396
partial tag: 0000000000000000
lru: 0000
reuse bit: 0
trace: 0
valid: 0
********
sampler set details
set index: 1585
partial tag: 0000000000000000
lru: 0000
reuse bit: 0
trace: 0
valid: 0
********
sampler set details
set index: 330
partial tag: 0000000000000000
lru: 0000
reuse bit: 0
trace: 0
valid: 0
********
sampler set details
set index: 1519
partial tag: 0000000000000000
lru: 0000
reuse bit: 0
trace: 0
valid: 0
********
sampler set details
set index: 264
partial tag: 0000000000000000
lru: 0000
reuse bit: 0
trace: 0
valid: 0
********
sampler set details
set index: 1453
partial tag: 0000000000000000
lru: 0000
reuse bit: 0
trace: 0
valid: 0
********
sampler set details
set index: 198
partial tag: 0000000110111110
lru: 0000
reuse bit: 1
trace: 193
valid: 1
********
sampler set details
set index: 1387
partial tag: 0000000000000000
lru: 0000
reuse bit: 0
trace: 0
valid: 0
********
sampler set details
set index: 132
partial tag: 0000000000000000
lru: 0000
reuse bit: 0
trace: 0
valid: 0
********
sampler set details
set index: 1321
partial tag: 0000000110111110
lru: 0000
reuse bit: 1
trace: 412
valid: 1
********
sampler set details
set index: 66
partial tag: 0000000110111110
lru: 0000
reuse bit: 1
trace: 2032
valid: 1
********
sampler set details
set index: 1255
partial tag: 0000000110111110
lru: 0000
reuse bit: 1
trace: 1249
valid: 1
********
sampler set details
set index: 0
partial tag: 0000000000000000
lru: 0000
reuse bit: 0
trace: 0
valid: 0
********
sampler set details
set index: 1189
partial tag: 0000000000000000
lru: 0000
reuse bit: 0
trace: 0
valid: 0
********
sampler set details
set index: 858
partial tag: 0000000000000000
lru: 0000
reuse bit: 0
trace: 0
valid: 0
********
sampler set details
set index: 924
partial tag: 0000000000000000
lru: 0000
reuse bit: 0
trace: 0
valid: 0
********
sampler set details
set index: 990
partial tag: 0000000000000000
lru: 0000
reuse bit: 0
trace: 0
valid: 0
********
sampler set details
set index: 1057
partial tag: 0000000110111110
lru: 0000
reuse bit: 1
trace: 1899
valid: 1
********
sampler set details
set index: 1123
partial tag: 0000000110111110
lru: 0000
reuse bit: 1
trace: 1690
valid: 1
********
sampler set details
set index: 2047
partial tag: 0000000000000000
lru: 0000
reuse bit: 0
trace: 0
valid: 0
********
sampler set details
set index: 1981
partial tag: 0000000110111110
lru: 0000
reuse bit: 1
trace: 1155
valid: 1
********
sampler set details
set index: 1915
partial tag: 0000000110111110
lru: 0000
reuse bit: 1
trace: 668
valid: 1
********
sampler set details
set index: 792
partial tag: 0000000000000000
lru: 0000
reuse bit: 0
trace: 0
valid: 0
********
sampler set details
set index: 726
partial tag: 0000000000000000
lru: 0000
reuse bit: 0
trace: 0
valid: 0
********
sampler set details
set index: 660
partial tag: 0000000000000000
lru: 0000
reuse bit: 0
trace: 0
valid: 0
********
sampler set details
set index: 1849
partial tag: 0000000000000000
lru: 0000
reuse bit: 0
trace: 0
valid: 0
********
sampler set details
set index: 594
partial tag: 0000000000000000
lru: 0000
reuse bit: 0
trace: 0
valid: 0
********
sampler set details
set index: 1783
partial tag: 0000000000000000
lru: 0000
reuse bit: 0
trace: 0
valid: 0
********
sampler set details
set index: 528
partial tag: 0000000110111110
lru: 0000
reuse bit: 1
trace: 1176
valid: 1
********
sampler set details
set index: 1717
partial tag: 0000000000000000
lru: 0000
reuse bit: 0
trace: 0
valid: 0
********
sampler set details
set index: 462
partial tag: 0000000110111110
lru: 0000
reuse bit: 1
trace: 1958
valid: 1
********
sampler set details
set index: 1651
partial tag: 0000000000000000
lru: 0000
reuse bit: 0
trace: 0
valid: 0
********
sampler set details
set index: 396
partial tag: 0000000000000000
lru: 0000
reuse bit: 0
trace: 0
valid: 0
********
sampler set details
set index: 1585
partial tag: 0000000000000000
lru: 0000
reuse bit: 0
trace: 0
valid: 0
********
sampler set details
set index: 330
partial tag: 0000000000000000
lru: 0000
reuse bit: 0
trace: 0
valid: 0
********
sampler set details
set index: 1519
partial tag: 0000000000000000
lru: 0000
reuse bit: 0
trace: 0
valid: 0
********
sampler set details
set index: 264
partial tag: 0000000000000000
lru: 0000
reuse bit: 0
trace: 0
valid: 0
********
sampler set details
set index: 1453
partial tag: 0000000000000000
lru: 0000
reuse bit: 0
trace: 0
valid: 0
********
sampler set details
set index: 198
partial tag: 0000000110111110
lru: 0000
reuse bit: 1
trace: 193
valid: 1
********
sampler set details
set index: 1387
partial tag: 0000000000000000
lru: 0000
reuse bit: 0
trace: 0
valid: 0
********
sampler set details
set index: 132
partial tag: 0000000000000000
lru: 0000
reuse bit: 0
trace: 0
valid: 0
********
sampler set details
set index: 1321
partial tag: 0000000110111110
lru: 0000
reuse bit: 1
trace: 412
valid: 1
********
sampler set details
set index: 66
partial tag: 0000000110111110
lru: 0000
reuse bit: 1
trace: 2032
valid: 1
********
sampler set details
set index: 1255
partial tag: 0000000110111110
lru: 0000
reuse bit: 1
trace: 1249
valid: 1
********
sampler set details
set index: 0
partial tag: 0000000000000000
lru: 0000
reuse bit: 0
trace: 0
valid: 0
********
sampler set details
set index: 1189
partial tag: 0000000110111110
lru: 0000
reuse bit: 1
trace: 1742
valid: 1
********
sampler set details
set index: 858
partial tag: 0000000000000000
lru: 0000
reuse bit: 0
trace: 0
valid: 0
********
sampler set details
set index: 924
partial tag: 0000000000000000
lru: 0000
reuse bit: 0
trace: 0
valid: 0
********
sampler set details
set index: 990
partial tag: 0000000000000000
lru: 0000
reuse bit: 0
trace: 0
valid: 0
********
sampler set details
set index: 1057
partial tag: 0000000110111110
lru: 0000
reuse bit: 1
trace: 1899
valid: 1
********
sampler set details
set index: 1123
partial tag: 0000000110111110
lru: 0000
reuse bit: 1
trace: 1690
valid: 1
********
sampler set details
set index: 2047
partial tag: 0000000000000000
lru: 0000
reuse bit: 0
trace: 0
valid: 0
********
sampler set details
set index: 1981
partial tag: 0000000110111110
lru: 0000
reuse bit: 1
trace: 1155
valid: 1
********
sampler set details
set index: 1915
partial tag: 0000000110111110
lru: 0000
reuse bit: 1
trace: 668
valid: 1
********
sampler set details
set index: 792
partial tag: 0000000000000000
lru: 0000
reuse bit: 0
trace: 0
valid: 0
********
sampler set details
set index: 726
partial tag: 0000000000000000
lru: 0000
reuse bit: 0
trace: 0
valid: 0
********
sampler set details
set index: 660
partial tag: 0000000000000000
lru: 0000
reuse bit: 0
trace: 0
valid: 0
********
sampler set details
set index: 1849
partial tag: 0000000000000000
lru: 0000
reuse bit: 0
trace: 0
valid: 0
********
sampler set details
set index: 594
partial tag: 0000000000000000
lru: 0000
reuse bit: 0
trace: 0
valid: 0
********
sampler set details
set index: 1783
partial tag: 0000000000000000
lru: 0000
reuse bit: 0
trace: 0
valid: 0
********
sampler set details
set index: 528
partial tag: 0000000110111110
lru: 0000
reuse bit: 1
trace: 1176
valid: 1
********
sampler set details
set index: 1717
partial tag: 0000000000000000
lru: 0000
reuse bit: 0
trace: 0
valid: 0
********
sampler set details
set index: 462
partial tag: 0000000110111110
lru: 0000
reuse bit: 1
trace: 1958
valid: 1
********
sampler set details
set index: 1651
partial tag: 0000000000000000
lru: 0000
reuse bit: 0
trace: 0
valid: 0
********
sampler set details
set index: 396
partial tag: 0000000000000000
lru: 0000
reuse bit: 0
trace: 0
valid: 0
********
sampler set details
set index: 1585
partial tag: 0000000000000000
lru: 0000
reuse bit: 0
trace: 0
valid: 0
********
sampler set details
set index: 330
partial tag: 0000000000000000
lru: 0000
reuse bit: 0
trace: 0
valid: 0
********
sampler set details
set index: 1519
partial tag: 0000000000000000
lru: 0000
reuse bit: 0
trace: 0
valid: 0
********
sampler set details
set index: 264
partial tag: 0000000000000000
lru: 0000
reuse bit: 0
trace: 0
valid: 0
********
sampler set details
set index: 1453
partial tag: 0000000000000000
lru: 0000
reuse bit: 0
trace: 0
valid: 0
********
sampler set details
set index: 198
partial tag: 0000000110111110
lru: 0000
reuse bit: 1
trace: 193
valid: 1
********
sampler set details
set index: 1387
partial tag: 0000000000000000
lru: 0000
reuse bit: 0
trace: 0
valid: 0
********
sampler set details
set index: 132
partial tag: 0000000000000000
lru: 0000
reuse bit: 0
trace: 0
valid: 0
********
sampler set details
set index: 1321
partial tag: 0000000110111110
lru: 0000
reuse bit: 1
trace: 412
valid: 1
********
sampler set details
set index: 66
partial tag: 0000000110111110
lru: 0000
reuse bit: 1
trace: 2032
valid: 1
********
sampler set details
set index: 1255
partial tag: 0000000110111110
lru: 0000
reuse bit: 1
trace: 1248
valid: 1
********
sampler set details
set index: 0
partial tag: 0000000000000000
lru: 0000
reuse bit: 0
trace: 0
valid: 0
********
sampler set details
set index: 1189
partial tag: 0000000110111110
lru: 0000
reuse bit: 1
trace: 1742
valid: 1
********
sampler set details
set index: 858
partial tag: 0000000000000000
lru: 0000
reuse bit: 0
trace: 0
valid: 0
********
sampler set details
set index: 924
partial tag: 0000000000000000
lru: 0000
reuse bit: 0
trace: 0
valid: 0
********
sampler set details
set index: 990
partial tag: 0000000000000000
lru: 0000
reuse bit: 0
trace: 0
valid: 0
********
sampler set details
set index: 1057
partial tag: 0000000110111110
lru: 0000
reuse bit: 1
trace: 1899
valid: 1
********
sampler set details
set index: 1123
partial tag: 0000000110111110
lru: 0000
reuse bit: 1
trace: 1690
valid: 1
********
sampler set details
set index: 2047
partial tag: 0000000000000000
lru: 0000
reuse bit: 0
trace: 0
valid: 0
********
sampler set details
set index: 1981
partial tag: 0000000110111110
lru: 0000
reuse bit: 1
trace: 1155
valid: 1
********
sampler set details
set index: 1915
partial tag: 0000000110111110
lru: 0000
reuse bit: 1
trace: 668
valid: 1
********
sampler set details
set index: 792
partial tag: 0000000000000000
lru: 0000
reuse bit: 0
trace: 0
valid: 0
********
sampler set details
set index: 726
partial tag: 0000000000000000
lru: 0000
reuse bit: 0
trace: 0
valid: 0
********
sampler set details
set index: 660
partial tag: 0000000000000000
lru: 0000
reuse bit: 0
trace: 0
valid: 0
********
sampler set details
set index: 1849
partial tag: 0000000000000000
lru: 0000
reuse bit: 0
trace: 0
valid: 0
********
sampler set details
set index: 594
partial tag: 0000000000000000
lru: 0000
reuse bit: 0
trace: 0
valid: 0
********
sampler set details
set index: 1783
partial tag: 0000000000000000
lru: 0000
reuse bit: 0
trace: 0
valid: 0
********
sampler set details
set index: 528
partial tag: 0000000110111110
lru: 0000
reuse bit: 1
trace: 1176
valid: 1
********
sampler set details
set index: 1717
partial tag: 0000000000000000
lru: 0000
reuse bit: 0
trace: 0
valid: 0
********
sampler set details
set index: 462
partial tag: 0000000110111110
lru: 0000
reuse bit: 1
trace: 1958
valid: 1
********
sampler set details
set index: 1651
partial tag: 0000000000000000
lru: 0000
reuse bit: 0
trace: 0
valid: 0
********
sampler set details
set index: 396
partial tag: 0000000000000000
lru: 0000
reuse bit: 0
trace: 0
valid: 0
********
sampler set details
set index: 1585
partial tag: 0000000000000000
lru: 0000
reuse bit: 0
trace: 0
valid: 0
********
sampler set details
set index: 330
partial tag: 0000000000000000
lru: 0000
reuse bit: 0
trace: 0
valid: 0
********
sampler set details
set index: 1519
partial tag: 0000000000000000
lru: 0000
reuse bit: 0
trace: 0
valid: 0
********
sampler set details
set index: 264
partial tag: 0000000000000000
lru: 0000
reuse bit: 0
trace: 0
valid: 0
********
sampler set details
set index: 1453
partial tag: 0000000000000000
lru: 0000
reuse bit: 0
trace: 0
valid: 0
********
sampler set details
set index: 198
partial tag: 0000000110111110
lru: 0000
reuse bit: 1
trace: 193
valid: 1
********
sampler set details
set index: 1387
partial tag: 0000000000000000
lru: 0000
reuse bit: 0
trace: 0
valid: 0
********
sampler set details
set index: 132
partial tag: 0000000000000000
lru: 0000
reuse bit: 0
trace: 0
valid: 0
********
sampler set details
set index: 1321
partial tag: 0000000110111110
lru: 0000
reuse bit: 1
trace: 412
valid: 1
********
sampler set details
set index: 66
partial tag: 0000000110111110
lru: 0000
reuse bit: 1
trace: 2032
valid: 1
********
sampler set details
set index: 1255
partial tag: 0000000110111110
lru: 0000
reuse bit: 1
trace: 1248
valid: 1
********
sampler set details
set index: 0
partial tag: 0000000000000000
lru: 0000
reuse bit: 0
trace: 0
valid: 0
********
sampler set details
set index: 1189
partial tag: 0000000110111110
lru: 0000
reuse bit: 1
trace: 1742
valid: 1
********
sampler set details
set index: 858
partial tag: 0000000000000000
lru: 0000
reuse bit: 0
trace: 0
valid: 0
********
sampler set details
set index: 924
partial tag: 0000000110111110
lru: 0000
reuse bit: 1
trace: 1980
valid: 1
********
sampler set details
set index: 990
partial tag: 0000000000000000
lru: 0000
reuse bit: 0
trace: 0
valid: 0
********
sampler set details
set index: 1057
partial tag: 0000000110111110
lru: 0000
reuse bit: 1
trace: 1899
valid: 1
********
sampler set details
set index: 1123
partial tag: 0000000110111110
lru: 0000
reuse bit: 1
trace: 1690
valid: 1
********
sampler set details
set index: 2047
partial tag: 0000000000000000
lru: 0000
reuse bit: 0
trace: 0
valid: 0
********
sampler set details
set index: 1981
partial tag: 0000000110111110
lru: 0000
reuse bit: 1
trace: 1155
valid: 1
********
sampler set details
set index: 1915
partial tag: 0000000110111110
lru: 0000
reuse bit: 1
trace: 668
valid: 1
********
sampler set details
set index: 792
partial tag: 0000000000000000
lru: 0000
reuse bit: 0
trace: 0
valid: 0
********
sampler set details
set index: 726
partial tag: 0000000000000000
lru: 0000
reuse bit: 0
trace: 0
valid: 0
********
sampler set details
set index: 660
partial tag: 0000000000000000
lru: 0000
reuse bit: 0
trace: 0
valid: 0
********
sampler set details
set index: 1849
partial tag: 0000000000000000
lru: 0000
reuse bit: 0
trace: 0
valid: 0
********
sampler set details
set index: 594
partial tag: 0000000000000000
lru: 0000
reuse bit: 0
trace: 0
valid: 0
********
sampler set details
set index: 1783
partial tag: 0000000000000000
lru: 0000
reuse bit: 0
trace: 0
valid: 0
********
sampler set details
set index: 528
partial tag: 0000000110111110
lru: 0000
reuse bit: 1
trace: 1176
valid: 1
********
sampler set details
set index: 1717
partial tag: 0000000000000000
lru: 0000
reuse bit: 0
trace: 0
valid: 0
********
sampler set details
set index: 462
partial tag: 0000000110111110
lru: 0000
reuse bit: 1
trace: 1958
valid: 1
********
sampler set details
set index: 1651
partial tag: 0000000000000000
lru: 0000
reuse bit: 0
trace: 0
valid: 0
********
sampler set details
set index: 396
partial tag: 0000000000000000
lru: 0000
reuse bit: 0
trace: 0
valid: 0
********
sampler set details
set index: 1585
partial tag: 0000000000000000
lru: 0000
reuse bit: 0
trace: 0
valid: 0
********
sampler set details
set index: 330
partial tag: 0000000000000000
lru: 0000
reuse bit: 0
trace: 0
valid: 0
********
sampler set details
set index: 1519
partial tag: 0000000000000000
lru: 0000
reuse bit: 0
trace: 0
valid: 0
********
sampler set details
set index: 264
partial tag: 0000000000000000
lru: 0000
reuse bit: 0
trace: 0
valid: 0
********
sampler set details
set index: 1453
partial tag: 0000000000000000
lru: 0000
reuse bit: 0
trace: 0
valid: 0
********
sampler set details
set index: 198
partial tag: 0000000110111110
lru: 0000
reuse bit: 1
trace: 193
valid: 1
********
sampler set details
set index: 1387
partial tag: 0000000000000000
lru: 0000
reuse bit: 0
trace: 0
valid: 0
********
sampler set details
set index: 132
partial tag: 0000000000000000
lru: 0000
reuse bit: 0
trace: 0
valid: 0
********
sampler set details
set index: 1321
partial tag: 0000000110111110
lru: 0000
reuse bit: 1
trace: 412
valid: 1
********
sampler set details
set index: 66
partial tag: 0000000110111110
lru: 0000
reuse bit: 1
trace: 2032
valid: 1
********
sampler set details
set index: 1255
partial tag: 0000000110111110
lru: 0000
reuse bit: 1
trace: 1248
valid: 1
********
sampler set details
set index: 0
partial tag: 0000000000000000
lru: 0000
reuse bit: 0
trace: 0
valid: 0
********
sampler set details
set index: 1189
partial tag: 0000000110111110
lru: 0000
reuse bit: 1
trace: 1922
valid: 1
********
sampler set details
set index: 858
partial tag: 0000000000000000
lru: 0000
reuse bit: 0
trace: 0
valid: 0
********
sampler set details
set index: 924
partial tag: 0000000110111110
lru: 0000
reuse bit: 1
trace: 1980
valid: 1
********
sampler set details
set index: 990
partial tag: 0000000000000000
lru: 0000
reuse bit: 0
trace: 0
valid: 0
********
sampler set details
set index: 1057
partial tag: 0000000110111110
lru: 0000
reuse bit: 1
trace: 1899
valid: 1
********
sampler set details
set index: 1123
partial tag: 0000000110111110
lru: 0000
reuse bit: 1
trace: 1690
valid: 1
********
sampler set details
set index: 2047
partial tag: 0000000000000000
lru: 0000
reuse bit: 0
trace: 0
valid: 0
********
sampler set details
set index: 1981
partial tag: 0000000110111110
lru: 0000
reuse bit: 1
trace: 1155
valid: 1
********
sampler set details
set index: 1915
partial tag: 0000000110111110
lru: 0000
reuse bit: 1
trace: 679
valid: 1
********
sampler set details
set index: 792
partial tag: 0000000000000000
lru: 0000
reuse bit: 0
trace: 0
valid: 0
********
sampler set details
set index: 726
partial tag: 0000000000000000
lru: 0000
reuse bit: 0
trace: 0
valid: 0
********
sampler set details
set index: 660
partial tag: 0000000000000000
lru: 0000
reuse bit: 0
trace: 0
valid: 0
********
sampler set details
set index: 1849
partial tag: 0000000000000000
lru: 0000
reuse bit: 0
trace: 0
valid: 0
********
sampler set details
set index: 594
partial tag: 0000000000000000
lru: 0000
reuse bit: 0
trace: 0
valid: 0
********
sampler set details
set index: 1783
partial tag: 0000000000000000
lru: 0000
reuse bit: 0
trace: 0
valid: 0
********
sampler set details
set index: 528
partial tag: 0000000110111110
lru: 0000
reuse bit: 1
trace: 1176
valid: 1
********
sampler set details
set index: 1717
partial tag: 0000000000000000
lru: 0000
reuse bit: 0
trace: 0
valid: 0
********
sampler set details
set index: 462
partial tag: 0000000110111110
lru: 0000
reuse bit: 1
trace: 1958
valid: 1
********
sampler set details
set index: 1651
partial tag: 0000000000000000
lru: 0000
reuse bit: 0
trace: 0
valid: 0
********
sampler set details
set index: 396
partial tag: 0000000000000000
lru: 0000
reuse bit: 0
trace: 0
valid: 0
********
sampler set details
set index: 1585
partial tag: 0000000000000000
lru: 0000
reuse bit: 0
trace: 0
valid: 0
********
sampler set details
set index: 330
partial tag: 0000000000000000
lru: 0000
reuse bit: 0
trace: 0
valid: 0
********
sampler set details
set index: 1519
partial tag: 0000000000000000
lru: 0000
reuse bit: 0
trace: 0
valid: 0
********
sampler set details
set index: 264
partial tag: 0000000000000000
lru: 0000
reuse bit: 0
trace: 0
valid: 0
********
sampler set details
set index: 1453
partial tag: 0000000000000000
lru: 0000
reuse bit: 0
trace: 0
valid: 0
********
sampler set details
set index: 198
partial tag: 0000000110111110
lru: 0000
reuse bit: 1
trace: 193
valid: 1
********
sampler set details
set index: 1387
partial tag: 0000000000000000
lru: 0000
reuse bit: 0
trace: 0
valid: 0
********
sampler set details
set index: 132
partial tag: 0000000000000000
lru: 0000
reuse bit: 0
trace: 0
valid: 0
********
sampler set details
set index: 1321
partial tag: 0000000110111110
lru: 0000
reuse bit: 1
trace: 412
valid: 1
********
sampler set details
set index: 66
partial tag: 0000000110111110
lru: 0000
reuse bit: 1
trace: 2032
valid: 1
********
sampler set details
set index: 1255
partial tag: 0000000110111110
lru: 0000
reuse bit: 1
trace: 1248
valid: 1
********
sampler set details
set index: 0
partial tag: 0000000000000000
lru: 0000
reuse bit: 0
trace: 0
valid: 0
********
sampler set details
set index: 1189
partial tag: 0000000110111110
lru: 0000
reuse bit: 1
trace: 1922
valid: 1
********
sampler set details
set index: 858
partial tag: 0000000000000000
lru: 0000
reuse bit: 0
trace: 0
valid: 0
********
sampler set details
set index: 924
partial tag: 0000000110111110
lru: 0000
reuse bit: 1
trace: 1980
valid: 1
********
sampler set details
set index: 990
partial tag: 0000000000000000
lru: 0000
reuse bit: 0
trace: 0
valid: 0
********
sampler set details
set index: 1057
partial tag: 0000000110111110
lru: 0000
reuse bit: 1
trace: 1899
valid: 1
********
sampler set details
set index: 1123
partial tag: 0000000110111110
lru: 0000
reuse bit: 1
trace: 1690
valid: 1
********
sampler set details
set index: 2047
partial tag: 0000000000000000
lru: 0000
reuse bit: 0
trace: 0
valid: 0
********
sampler set details
set index: 1981
partial tag: 0000000110111110
lru: 0000
reuse bit: 1
trace: 1155
valid: 1
********
sampler set details
set index: 1915
partial tag: 0000000110111110
lru: 0000
reuse bit: 1
trace: 679
valid: 1
********
sampler set details
set index: 792
partial tag: 0000000000000000
lru: 0000
reuse bit: 0
trace: 0
valid: 0
********
sampler set details
set index: 726
partial tag: 0000000000000000
lru: 0000
reuse bit: 0
trace: 0
valid: 0
********
sampler set details
set index: 660
partial tag: 0000000000000000
lru: 0000
reuse bit: 0
trace: 0
valid: 0
********
sampler set details
set index: 1849
partial tag: 0000000000000000
lru: 0000
reuse bit: 0
trace: 0
valid: 0
********
sampler set details
set index: 594
partial tag: 0000000000000000
lru: 0000
reuse bit: 0
trace: 0
valid: 0
********
sampler set details
set index: 1783
partial tag: 0000000000000000
lru: 0000
reuse bit: 0
trace: 0
valid: 0
********
sampler set details
set index: 528
partial tag: 0000000110111110
lru: 0000
reuse bit: 1
trace: 1176
valid: 1
********
sampler set details
set index: 1717
partial tag: 0000000000000000
lru: 0000
reuse bit: 0
trace: 0
valid: 0
********
sampler set details
set index: 462
partial tag: 0000000110111110
lru: 0000
reuse bit: 1
trace: 1958
valid: 1
********
sampler set details
set index: 1651
partial tag: 0000000000000000
lru: 0000
reuse bit: 0
trace: 0
valid: 0
********
sampler set details
set index: 396
partial tag: 0000000000000000
lru: 0000
reuse bit: 0
trace: 0
valid: 0
********
sampler set details
set index: 1585
partial tag: 0000000000000000
lru: 0000
reuse bit: 0
trace: 0
valid: 0
********
sampler set details
set index: 330
partial tag: 0000000000000000
lru: 0000
reuse bit: 0
trace: 0
valid: 0
********
sampler set details
set index: 1519
partial tag: 0000000000000000
lru: 0000
reuse bit: 0
trace: 0
valid: 0
********
sampler set details
set index: 264
partial tag: 0000000000000000
lru: 0000
reuse bit: 0
trace: 0
valid: 0
********
sampler set details
set index: 1453
partial tag: 0000000000000000
lru: 0000
reuse bit: 0
trace: 0
valid: 0
********
sampler set details
set index: 198
partial tag: 0000000110111110
lru: 0000
reuse bit: 1
trace: 193
valid: 1
********
sampler set details
set index: 1387
partial tag: 0000000000000000
lru: 0000
reuse bit: 0
trace: 0
valid: 0
********
sampler set details
set index: 132
partial tag: 0000000000000000
lru: 0000
reuse bit: 0
trace: 0
valid: 0
********
sampler set details
set index: 1321
partial tag: 0000000110111110
lru: 0000
reuse bit: 1
trace: 412
valid: 1
********
sampler set details
set index: 66
partial tag: 0000000110111110
lru: 0000
reuse bit: 1
trace: 2032
valid: 1
********
sampler set details
set index: 1255
partial tag: 0000000110111110
lru: 0000
reuse bit: 1
trace: 1248
valid: 1
********
sampler set details
set index: 0
partial tag: 0000000000000000
lru: 0000
reuse bit: 0
trace: 0
valid: 0
********
sampler set details
set index: 1189
partial tag: 0000000110111110
lru: 0000
reuse bit: 1
trace: 1922
valid: 1
********
sampler set details
set index: 858
partial tag: 0000000000000000
lru: 0000
reuse bit: 0
trace: 0
valid: 0
********
sampler set details
set index: 924
partial tag: 0000000110111110
lru: 0000
reuse bit: 1
trace: 1039
valid: 1
********
sampler set details
set index: 990
partial tag: 0000000000000000
lru: 0000
reuse bit: 0
trace: 0
valid: 0
********
sampler set details
set index: 1057
partial tag: 0000000110111110
lru: 0000
reuse bit: 1
trace: 1899
valid: 1
********
sampler set details
set index: 1123
partial tag: 0000000110111110
lru: 0000
reuse bit: 1
trace: 1690
valid: 1
********
sampler set details
set index: 2047
partial tag: 0000000000000000
lru: 0000
reuse bit: 0
trace: 0
valid: 0
********
sampler set details
set index: 1981
partial tag: 0000000110111110
lru: 0000
reuse bit: 1
trace: 1155
valid: 1
********
sampler set details
set index: 1915
partial tag: 0000000110111110
lru: 0000
reuse bit: 1
trace: 679
valid: 1
********
sampler set details
set index: 792
partial tag: 0000000000000000
lru: 0000
reuse bit: 0
trace: 0
valid: 0
********
sampler set details
set index: 726
partial tag: 0000000000000000
lru: 0000
reuse bit: 0
trace: 0
valid: 0
********
sampler set details
set index: 660
partial tag: 0000000000000000
lru: 0000
reuse bit: 0
trace: 0
valid: 0
********
sampler set details
set index: 1849
partial tag: 0000000000000000
lru: 0000
reuse bit: 0
trace: 0
valid: 0
********
sampler set details
set index: 594
partial tag: 0000000110111110
lru: 0000
reuse bit: 1
trace: 1351
valid: 1
********
sampler set details
set index: 1783
partial tag: 0000000000000000
lru: 0000
reuse bit: 0
trace: 0
valid: 0
********
sampler set details
set index: 528
partial tag: 0000000110111110
lru: 0000
reuse bit: 1
trace: 1176
valid: 1
********
sampler set details
set index: 1717
partial tag: 0000000000000000
lru: 0000
reuse bit: 0
trace: 0
valid: 0
********
sampler set details
set index: 462
partial tag: 0000000110111110
lru: 0000
reuse bit: 1
trace: 1958
valid: 1
********
sampler set details
set index: 1651
partial tag: 0000000000000000
lru: 0000
reuse bit: 0
trace: 0
valid: 0
********
sampler set details
set index: 396
partial tag: 0000000000000000
lru: 0000
reuse bit: 0
trace: 0
valid: 0
********
sampler set details
set index: 1585
partial tag: 0000000000000000
lru: 0000
reuse bit: 0
trace: 0
valid: 0
********
sampler set details
set index: 330
partial tag: 0000000000000000
lru: 0000
reuse bit: 0
trace: 0
valid: 0
********
sampler set details
set index: 1519
partial tag: 0000000000000000
lru: 0000
reuse bit: 0
trace: 0
valid: 0
********
sampler set details
set index: 264
partial tag: 0000000000000000
lru: 0000
reuse bit: 0
trace: 0
valid: 0
********
sampler set details
set index: 1453
partial tag: 0000000000000000
lru: 0000
reuse bit: 0
trace: 0
valid: 0
********
sampler set details
set index: 198
partial tag: 0000000110111110
lru: 0000
reuse bit: 1
trace: 193
valid: 1
********
sampler set details
set index: 1387
partial tag: 0000000000000000
lru: 0000
reuse bit: 0
trace: 0
valid: 0
********
sampler set details
set index: 132
partial tag: 0000000000000000
lru: 0000
reuse bit: 0
trace: 0
valid: 0
********
sampler set details
set index: 1321
partial tag: 0000000110111110
lru: 0000
reuse bit: 1
trace: 412
valid: 1
********
sampler set details
set index: 66
partial tag: 0000000110111110
lru: 0000
reuse bit: 1
trace: 2032
valid: 1
********
sampler set details
set index: 1255
partial tag: 0000000110111110
lru: 0000
reuse bit: 1
trace: 1248
valid: 1
********
sampler set details
set index: 0
partial tag: 0000000000000000
lru: 0000
reuse bit: 0
trace: 0
valid: 0
********
sampler set details
set index: 1189
partial tag: 0000000110111110
lru: 0000
reuse bit: 1
trace: 1922
valid: 1
********
sampler set details
set index: 858
partial tag: 0000000000000000
lru: 0000
reuse bit: 0
trace: 0
valid: 0
********
sampler set details
set index: 924
partial tag: 0000000110111110
lru: 0000
reuse bit: 1
trace: 1039
valid: 1
********
sampler set details
set index: 990
partial tag: 0000000000000000
lru: 0000
reuse bit: 0
trace: 0
valid: 0
********
sampler set details
set index: 1057
partial tag: 0000000110111110
lru: 0000
reuse bit: 1
trace: 1899
valid: 1
********
sampler set details
set index: 1123
partial tag: 0000000110111110
lru: 0000
reuse bit: 1
trace: 1690
valid: 1
********
sampler set details
set index: 2047
partial tag: 0000000000000000
lru: 0000
reuse bit: 0
trace: 0
valid: 0
********
sampler set details
set index: 1981
partial tag: 0000000110111110
lru: 0000
reuse bit: 1
trace: 1155
valid: 1
********
sampler set details
set index: 1915
partial tag: 0000000110111110
lru: 0000
reuse bit: 1
trace: 679
valid: 1
********
sampler set details
set index: 792
partial tag: 0000000000000000
lru: 0000
reuse bit: 0
trace: 0
valid: 0
********
sampler set details
set index: 726
partial tag: 0000000000000000
lru: 0000
reuse bit: 0
trace: 0
valid: 0
********
sampler set details
set index: 660
partial tag: 0000000000000000
lru: 0000
reuse bit: 0
trace: 0
valid: 0
********
sampler set details
set index: 1849
partial tag: 0000000110111110
lru: 0000
reuse bit: 1
trace: 591
valid: 1
********
sampler set details
set index: 594
partial tag: 0000000110111110
lru: 0000
reuse bit: 1
trace: 1351
valid: 1
********
sampler set details
set index: 1783
partial tag: 0000000000000000
lru: 0000
reuse bit: 0
trace: 0
valid: 0
********
sampler set details
set index: 528
partial tag: 0000000110111110
lru: 0000
reuse bit: 1
trace: 1176
valid: 1
********
sampler set details
set index: 1717
partial tag: 0000000000000000
lru: 0000
reuse bit: 0
trace: 0
valid: 0
********
sampler set details
set index: 462
partial tag: 0000000110111110
lru: 0000
reuse bit: 1
trace: 1958
valid: 1
********
sampler set details
set index: 1651
partial tag: 0000000000000000
lru: 0000
reuse bit: 0
trace: 0
valid: 0
********
sampler set details
set index: 396
partial tag: 0000000000000000
lru: 0000
reuse bit: 0
trace: 0
valid: 0
********
sampler set details
set index: 1585
partial tag: 0000000000000000
lru: 0000
reuse bit: 0
trace: 0
valid: 0
********
sampler set details
set index: 330
partial tag: 0000000000000000
lru: 0000
reuse bit: 0
trace: 0
valid: 0
********
sampler set details
set index: 1519
partial tag: 0000000000000000
lru: 0000
reuse bit: 0
trace: 0
valid: 0
********
sampler set details
set index: 264
partial tag: 0000000000000000
lru: 0000
reuse bit: 0
trace: 0
valid: 0
********
sampler set details
set index: 1453
partial tag: 0000000000000000
lru: 0000
reuse bit: 0
trace: 0
valid: 0
********
sampler set details
set index: 198
partial tag: 0000000110111110
lru: 0000
reuse bit: 1
trace: 193
valid: 1
********
sampler set details
set index: 1387
partial tag: 0000000000000000
lru: 0000
reuse bit: 0
trace: 0
valid: 0
********
sampler set details
set index: 132
partial tag: 0000000000000000
lru: 0000
reuse bit: 0
trace: 0
valid: 0
********
sampler set details
set index: 1321
partial tag: 0000000110111110
lru: 0000
reuse bit: 1
trace: 412
valid: 1
********
sampler set details
set index: 66
partial tag: 0000000110111110
lru: 0000
reuse bit: 1
trace: 2032
valid: 1
********
sampler set details
set index: 1255
partial tag: 0000000110111110
lru: 0000
reuse bit: 1
trace: 1248
valid: 1
********
sampler set details
set index: 0
partial tag: 0000000000000000
lru: 0000
reuse bit: 0
trace: 0
valid: 0
********
sampler set details
set index: 1189
partial tag: 0000000110111110
lru: 0000
reuse bit: 1
trace: 1922
valid: 1
********
sampler set details
set index: 858
partial tag: 0000000000000000
lru: 0000
reuse bit: 0
trace: 0
valid: 0
********
sampler set details
set index: 924
partial tag: 0000000110111110
lru: 0000
reuse bit: 1
trace: 1039
valid: 1
********
sampler set details
set index: 990
partial tag: 0000000000000000
lru: 0000
reuse bit: 0
trace: 0
valid: 0
********
sampler set details
set index: 1057
partial tag: 0000000110111110
lru: 0000
reuse bit: 1
trace: 1899
valid: 1
********
sampler set details
set index: 1123
partial tag: 0000000110111110
lru: 0000
reuse bit: 1
trace: 1690
valid: 1
********
sampler set details
set index: 2047
partial tag: 0000000000000000
lru: 0000
reuse bit: 0
trace: 0
valid: 0
********
sampler set details
set index: 1981
partial tag: 0000000110111110
lru: 0000
reuse bit: 1
trace: 1155
valid: 1
********
sampler set details
set index: 1915
partial tag: 0000000110111110
lru: 0000
reuse bit: 1
trace: 679
valid: 1
********
sampler set details
set index: 792
partial tag: 0000000000000000
lru: 0000
reuse bit: 0
trace: 0
valid: 0
********
sampler set details
set index: 726
partial tag: 0000000000000000
lru: 0000
reuse bit: 0
trace: 0
valid: 0
********
sampler set details
set index: 660
partial tag: 0000000000000000
lru: 0000
reuse bit: 0
trace: 0
valid: 0
********
sampler set details
set index: 1849
partial tag: 0000000110111110
lru: 0000
reuse bit: 1
trace: 591
valid: 1
********
sampler set details
set index: 594
partial tag: 0000000110111110
lru: 0000
reuse bit: 1
trace: 1351
valid: 1
********
sampler set details
set index: 1783
partial tag: 0000000000000000
lru: 0000
reuse bit: 0
trace: 0
valid: 0
********
sampler set details
set index: 528
partial tag: 0000000110111110
lru: 0000
reuse bit: 1
trace: 1176
valid: 1
********
sampler set details
set index: 1717
partial tag: 0000000000000000
lru: 0000
reuse bit: 0
trace: 0
valid: 0
********
sampler set details
set index: 462
partial tag: 0000000110111110
lru: 0000
reuse bit: 1
trace: 1958
valid: 1
********
sampler set details
set index: 1651
partial tag: 0000000000000000
lru: 0000
reuse bit: 0
trace: 0
valid: 0
********
sampler set details
set index: 396
partial tag: 0000000000000000
lru: 0000
reuse bit: 0
trace: 0
valid: 0
********
sampler set details
set index: 1585
[...]
set index: 1255
partial tag: 0000000110111110
lru: 0000
reuse bit: 1
trace: 1248
valid: 1
********
sampler set details
set index: 0
partial tag: 0000000110111110
lru: 0000
reuse bit: 1
trace: 1677
valid: 1
********
sampler set details
set index: 1189
partial tag: 0000000110111110
lru: 0000
reuse bit: 1
trace: 1922
valid: 1
********
sampler set details
set index: 858
partial tag: 0000000110111110
lru: 0000
reuse bit: 1
trace: 1677
valid: 1
********
sampler set details
set index: 924
partial tag: 0000000110111110
lru: 0000
reuse bit: 1
trace: 1039
valid: 1
********
sampler set details
set index: 990
partial tag: 0000000000000000
lru: 0000
reuse bit: 0
trace: 0
valid: 0
********
sampler set details
set index: 1057
partial tag: 0000000110111110
lru: 0000
reuse bit: 1
trace: 1899
valid: 1
********
sampler set details
set index: 1123
partial tag: 0000000110111110
lru: 0000
reuse bit: 1
trace: 1690
valid: 1
********
sampler set details
set index: 2047
partial tag: 0000000000000000
lru: 0000
reuse bit: 0
trace: 0
valid: 0
********
sampler set details
set index: 1981
partial tag: 0000000110111110
lru: 0000
reuse bit: 1
trace: 1155
valid: 1
********
sampler set details
set index: 1915
partial tag: 0000000110111110
lru: 0000
reuse bit: 1
trace: 679
valid: 1
********
sampler set details
set index: 792
partial tag: 0000000000000000
lru: 0000
reuse bit: 0
trace: 0
valid: 0
********
sampler set details
set index: 726
partial tag: 0000000110111110
lru: 0000
reuse bit: 1
trace: 879
valid: 1
********
sampler set details
set index: 660
partial tag: 0000000110111110
lru: 0000
reuse bit: 1
trace: 1464
valid: 1
********
sampler set details
set index: 1849
partial tag: 0000000110111110
lru: 0000
reuse bit: 1
trace: 591
valid: 1
********
sampler set details
set index: 594
partial tag: 0000000110111110
lru: 0000
reuse bit: 1
trace: 1351
valid: 1
********
sampler set details
set index: 1783
partial tag: 0000000000000000
lru: 0000
reuse bit: 0
trace: 0
valid: 0
********
sampler set details
set index: 528
partial tag: 0000000110111110
lru: 0000
reuse bit: 1
trace: 1176
valid: 1
********
sampler set details
set index: 1717
partial tag: 0000000110111110
lru: 0000
reuse bit: 1
trace: 568
valid: 1
********
sampler set details
set index: 462
partial tag: 0000000110111110
lru: 0000
reuse bit: 1
trace: 1958
valid: 1
********
sampler set details
set index: 1651
partial tag: 0000000000000000
lru: 0000
reuse bit: 0
trace: 0
valid: 0
********
sampler set details
set index: 396
partial tag: 0000000000000000
lru: 0000
reuse bit: 0
trace: 0
valid: 0
********
sampler set details
set index: 1585
partial tag: 0000000110111110
lru: 0000
reuse bit: 1
trace: 799
valid: 1
********
sampler set details
set index: 330
partial tag: 0000000000000000
lru: 0000
reuse bit: 0
trace: 0
valid: 0
********
sampler set details
set index: 1519
partial tag: 0000000000000000
lru: 0000
reuse bit: 0
trace: 0
valid: 0
********
sampler set details
set index: 264
partial tag: 0000000000000000
lru: 0000
reuse bit: 0
trace: 0
valid: 0
********
sampler set details
set index: 1453
partial tag: 0000000000000000
lru: 0000
reuse bit: 0
trace: 0
valid: 0
********
sampler set details
set index: 198
partial tag: 0000000110111110
lru: 0000
reuse bit: 1
trace: 193
valid: 1
********
sampler set details
set index: 1387
partial tag: 0000000000000000
lru: 0000
reuse bit: 0
trace: 0
valid: 0
********
sampler set details
set index: 132
partial tag: 0000000110111110
lru: 0000
reuse bit: 1
trace: 858
valid: 1
********
sampler set details
set index: 1321
partial tag: 0000000110111110
lru: 0000
reuse bit: 1
trace: 412
valid: 1
********
sampler set details
set index: 66
partial tag: 0000000110111110
lru: 0000
reuse bit: 1
trace: 2032
valid: 1
********
sampler set details
set index: 1255
partial tag: 0000000110111110
lru: 0000
reuse bit: 1
trace: 2029
valid: 1
********
sampler set details
set index: 0
partial tag: 0000000110111110
lru: 0000
reuse bit: 1
trace: 1677
valid: 1
********
sampler set details
set index: 1189
partial tag: 0000000110111110
lru: 0000
reuse bit: 1
trace: 1922
valid: 1
********
sampler set details
set index: 858
partial tag: 0000000110111110
lru: 0000
reuse bit: 1
trace: 1677
valid: 1
********
sampler set details
set index: 924
partial tag: 0000000110111110
lru: 0000
reuse bit: 1
trace: 1039
valid: 1
********
sampler set details
set index: 990
partial tag: 0000000000000000
lru: 0000
reuse bit: 0
trace: 0
valid: 0
********
sampler set details
set index: 1057
partial tag: 0000000110111110
lru: 0000
reuse bit: 1
trace: 1899
valid: 1
********
sampler set details
set index: 1123
partial tag: 0000000110111110
lru: 0000
reuse bit: 1
trace: 1690
valid: 1
********
sampler set details
set index: 2047
partial tag: 0000000000000000
lru: 0000
reuse bit: 0
trace: 0
valid: 0
********
sampler set details
set index: 1981
partial tag: 0000000110111110
lru: 0000
reuse bit: 1
trace: 1155
valid: 1
********
sampler set details
set index: 1915
partial tag: 0000000110111110
lru: 0000
reuse bit: 1
trace: 679
valid: 1
********
sampler set details
set index: 792
partial tag: 0000000110111110
lru: 0000
reuse bit: 1
trace: 1734
valid: 1
********
sampler set details
set index: 726
partial tag: 0000000110111110
lru: 0000
reuse bit: 1
trace: 879
valid: 1
********
sampler set details
set index: 660
partial tag: 0000000110111110
lru: 0000
reuse bit: 1
trace: 1464
valid: 1
********
sampler set details
set index: 1849
partial tag: 0000000110111110
lru: 0000
reuse bit: 1
trace: 591
valid: 1
********
sampler set details
set index: 594
partial tag: 0000000110111110
lru: 0000
reuse bit: 1
trace: 1351
valid: 1
********
sampler set details
set index: 1783
partial tag: 0000000000000000
lru: 0000
reuse bit: 0
trace: 0
valid: 0
********
sampler set details
set index: 528
partial tag: 0000000110111110
lru: 0000
reuse bit: 1
trace: 1176
valid: 1
********
sampler set details
set index: 1717
partial tag: 0000000110111110
lru: 0000
reuse bit: 1
trace: 568
valid: 1
********
sampler set details
set index: 462
partial tag: 0000000110111110
lru: 0000
reuse bit: 1
trace: 1958
valid: 1
********
sampler set details
set index: 1651
partial tag: 0000000000000000
lru: 0000
reuse bit: 0
trace: 0
valid: 0
********
sampler set details
set index: 396
partial tag: 0000000000000000
lru: 0000
reuse bit: 0
trace: 0
valid: 0
********
sampler set details
set index: 1585
partial tag: 0000000110111110
lru: 0000
reuse bit: 1
trace: 799
valid: 1
********
sampler set details
set index: 330
partial tag: 0000000000000000
lru: 0000
reuse bit: 0
trace: 0
valid: 0
********
sampler set details
set index: 1519
partial tag: 0000000000000000
lru: 0000
reuse bit: 0
trace: 0
valid: 0
********
sampler set details
set index: 264
partial tag: 0000000000000000
lru: 0000
reuse bit: 0
trace: 0
valid: 0
********
sampler set details
set index: 1453
partial tag: 0000000000000000
lru: 0000
reuse bit: 0
trace: 0
valid: 0
********
sampler set details
set index: 198
partial tag: 0000000110111110
lru: 0000
reuse bit: 1
trace: 193
valid: 1
********
sampler set details
set index: 1387
partial tag: 0000000000000000
lru: 0000
reuse bit: 0
trace: 0
valid: 0
********
sampler set details
set index: 132
partial tag: 0000000110111110
lru: 0000
reuse bit: 1
trace: 858
valid: 1
********
sampler set details
set index: 1321
partial tag: 0000000110111110
lru: 0000
reuse bit: 1
trace: 412
valid: 1
********
sampler set details
set index: 66
partial tag: 0000000110111110
lru: 0000
reuse bit: 1
trace: 2032
valid: 1
********
sampler set details
set index: 1255
partial tag: 0000000110111110
lru: 0000
reuse bit: 1
trace: 2029
valid: 1
********
sampler set details
set index: 0
partial tag: 0000000110111110
lru: 0000
reuse bit: 1
trace: 1677
valid: 1
********
sampler set details
set index: 1189
partial tag: 0000000110111110
lru: 0000
reuse bit: 1
trace: 1922
valid: 1
********
sampler set details
set index: 858
partial tag: 0000000110111110
lru: 0000
reuse bit: 1
trace: 1677
valid: 1
********
sampler set details
set index: 924
partial tag: 0000000110111110
lru: 0000
reuse bit: 1
trace: 1039
valid: 1
********
sampler set details
set index: 990
partial tag: 0000000000000000
lru: 0000
reuse bit: 0
trace: 0
valid: 0
********
sampler set details
set index: 1057
partial tag: 0000000110111110
lru: 0000
reuse bit: 1
trace: 1899
valid: 1
********
sampler set details
set index: 1123
partial tag: 0000000110111110
lru: 0000
reuse bit: 1
trace: 1690
valid: 1
********
sampler set details
set index: 2047
partial tag: 0000000000000000
lru: 0000
reuse bit: 0
trace: 0
valid: 0
********
sampler set details
set index: 1981
partial tag: 0000000110111110
lru: 0000
reuse bit: 1
trace: 1155
valid: 1
********
sampler set details
set index: 1915
partial tag: 0000000110111110
lru: 0000
reuse bit: 1
trace: 679
valid: 1
********
sampler set details
set index: 792
partial tag: 0000000110111110
lru: 0000
reuse bit: 1
trace: 1734
valid: 1
********
sampler set details
set index: 726
partial tag: 0000000110111110
lru: 0000
reuse bit: 1
trace: 1776
valid: 1
********
sampler set details
set index: 660
partial tag: 0000000110111110
lru: 0000
reuse bit: 1
trace: 1464
valid: 1
********
sampler set details
set index: 1849
partial tag: 0000000110111110
lru: 0000
reuse bit: 1
trace: 591
valid: 1
********
sampler set details
set index: 594
partial tag: 0000000110111110
lru: 0000
reuse bit: 1
trace: 1351
valid: 1
********
sampler set details
set index: 1783
partial tag: 0000000000000000
lru: 0000
reuse bit: 0
trace: 0
valid: 0
********
sampler set details
set index: 528
partial tag: 0000000110111110
lru: 0000
reuse bit: 1
trace: 1176
valid: 1
********
sampler set details
set index: 1717
partial tag: 0000000110111110
lru: 0000
reuse bit: 1
trace: 568
valid: 1
********
sampler set details
set index: 462
partial tag: 0000000110111110
lru: 0000
reuse bit: 1
trace: 1958
valid: 1
********
sampler set details
set index: 1651
partial tag: 0000000000000000
lru: 0000
reuse bit: 0
trace: 0
valid: 0
********
sampler set details
set index: 396
partial tag: 0000000000000000
lru: 0000
reuse bit: 0
trace: 0
valid: 0
********
sampler set details
set index: 1585
partial tag: 0000000110111110
lru: 0000
reuse bit: 1
trace: 799
valid: 1
********
sampler set details
set index: 330
partial tag: 0000000000000000
lru: 0000
reuse bit: 0
trace: 0
valid: 0
********
sampler set details
set index: 1519
partial tag: 0000000000000000
lru: 0000
reuse bit: 0
trace: 0
valid: 0
********
sampler set details
set index: 264
partial tag: 0000000000000000
lru: 0000
reuse bit: 0
trace: 0
valid: 0
********
sampler set details
set index: 1453
partial tag: 0000000000000000
lru: 0000
reuse bit: 0
trace: 0
valid: 0
********
sampler set details
set index: 198
partial tag: 0000000110111110
lru: 0000
reuse bit: 1
trace: 193
valid: 1
********
sampler set details
set index: 1387
partial tag: 0000000000000000
lru: 0000
reuse bit: 0
trace: 0
valid: 0
********
sampler set details
set index: 132
partial tag: 0000000110111110
lru: 0000
reuse bit: 1
trace: 858
valid: 1
********
sampler set details
set index: 1321
partial tag: 0000000110111110
lru: 0000
reuse bit: 1
trace: 412
valid: 1
********
sampler set details
set index: 66
partial tag: 0000000110111110
lru: 0000
reuse bit: 1
trace: 2032
valid: 1
********
sampler set details
set index: 1255
partial tag: 0000000110111110
lru: 0000
reuse bit: 1
trace: 2029
valid: 1
********
sampler set details
set index: 0
partial tag: 0000000110111110
lru: 0000
reuse bit: 1
trace: 1677
valid: 1
********
sampler set details
set index: 1189
partial tag: 0000000110111110
lru: 0000
reuse bit: 1
trace: 1922
valid: 1
********
sampler set details
set index: 858
partial tag: 0000000110111110
lru: 0000
reuse bit: 1
trace: 1677
valid: 1
********
sampler set details
set index: 924
partial tag: 0000000110111110
lru: 0000
reuse bit: 1
trace: 1039
valid: 1
********
sampler set details
set index: 990
partial tag: 0000000000000000
lru: 0000
reuse bit: 0
trace: 0
valid: 0
********
sampler set details
set index: 1057
partial tag: 0000000110111110
lru: 0000
reuse bit: 1
trace: 1899
valid: 1
********
sampler set details
set index: 1123
partial tag: 0000000110111110
lru: 0000
reuse bit: 1
trace: 1690
valid: 1
********
sampler set details
set index: 2047
partial tag: 0000000000000000
lru: 0000
reuse bit: 0
trace: 0
valid: 0
********
sampler set details
set index: 1981
partial tag: 0000000110111110
lru: 0000
reuse bit: 1
trace: 1155
valid: 1
********
sampler set details
set index: 1915
partial tag: 0000000110111110
lru: 0000
reuse bit: 1
trace: 679
valid: 1
********
sampler set details
set index: 792
partial tag: 0000000110111110
lru: 0000
reuse bit: 1
trace: 1734
valid: 1
********
sampler set details
set index: 726
partial tag: 0000000110111110
lru: 0000
reuse bit: 1
trace: 1776
valid: 1
********
sampler set details
set index: 660
partial tag: 0000000110111110
lru: 0000
reuse bit: 1
trace: 1464
valid: 1
********
sampler set details
set index: 1849
partial tag: 0000000110111110
lru: 0000
reuse bit: 1
trace: 591
valid: 1
********
sampler set details
set index: 594
partial tag: 0000000110111110
lru: 0000
reuse bit: 1
trace: 1351
valid: 1
********
sampler set details
set index: 1783
partial tag: 0000000000000000
lru: 0000
reuse bit: 0
trace: 0
valid: 0
********
sampler set details
set index: 528
partial tag: 0000000110111110
lru: 0000
reuse bit: 1
trace: 291
valid: 1
********
sampler set details
set index: 1717
partial tag: 0000000110111110
lru: 0000
reuse bit: 1
trace: 568
valid: 1
********
sampler set details
set index: 462
partial tag: 0000000110111110
lru: 0000
reuse bit: 1
trace: 1958
valid: 1
********
sampler set details
set index: 1651
partial tag: 0000000000000000
lru: 0000
reuse bit: 0
trace: 0
valid: 0
********
sampler set details
set index: 396
partial tag: 0000000000000000
lru: 0000
reuse bit: 0
trace: 0
valid: 0
********
sampler set details
set index: 1585
partial tag: 0000000110111110
lru: 0000
reuse bit: 1
trace: 799
valid: 1
********
sampler set details
set index: 330
partial tag: 0000000000000000
lru: 0000
reuse bit: 0
trace: 0
valid: 0
********
sampler set details
set index: 1519
partial tag: 0000000000000000
lru: 0000
reuse bit: 0
trace: 0
valid: 0
********
sampler set details
set index: 264
partial tag: 0000000000000000
lru: 0000
reuse bit: 0
trace: 0
valid: 0
********
sampler set details
set index: 1453
partial tag: 0000000000000000
lru: 0000
reuse bit: 0
trace: 0
valid: 0
********
sampler set details
set index: 198
partial tag: 0000000110111110
lru: 0000
reuse bit: 1
trace: 193
valid: 1
********
sampler set details
set index: 1387
partial tag: 0000000000000000
lru: 0000
reuse bit: 0
trace: 0
valid: 0
********
sampler set details
set index: 132
partial tag: 0000000110111110
lru: 0000
reuse bit: 1
trace: 858
valid: 1
********
sampler set details
set index: 1321
partial tag: 0000000110111110
lru: 0000
reuse bit: 1
trace: 412
valid: 1
********
sampler set details
set index: 66
partial tag: 0000000110111110
lru: 0000
reuse bit: 1
trace: 2032
valid: 1
********
sampler set details
set index: 1255
partial tag: 0000000110111110
lru: 0000
reuse bit: 1
trace: 2029
valid: 1
********
sampler set details
set index: 0
partial tag: 0000000110111110
lru: 0000
reuse bit: 1
trace: 1677
valid: 1
********
sampler set details
set index: 1189
partial tag: 0000000110111110
lru: 0000
reuse bit: 1
trace: 1922
valid: 1
********
sampler set details
set index: 858
partial tag: 0000000110111110
lru: 0000
reuse bit: 1
trace: 1677
valid: 1
********
sampler set details
set index: 924
partial tag: 0000000110111110
lru: 0000
reuse bit: 1
trace: 1039
valid: 1
********
sampler set details
set index: 990
partial tag: 0000000000000000
lru: 0000
reuse bit: 0
trace: 0
valid: 0
********
sampler set details
set index: 1057
partial tag: 0000000110111110
lru: 0000
reuse bit: 1
trace: 1899
valid: 1
********
sampler set details
set index: 1123
partial tag: 0000000110111110
lru: 0000
reuse bit: 1
trace: 1690
valid: 1
********
Heartbeat CPU 0 instructions: 10000003 cycles: 9570851 heartbeat IPC: 1.04484 cumulative IPC: 0.989645 (Simulation time: 0 hr 0 min 13 sec) 
Finished CPU 0 instructions: 10000002 cycles: 10096448 cumulative IPC: 0.990448 (Simulation time: 0 hr 0 min 14 sec) 

CPU 0 Branch Prediction Accuracy: 94.6761% MPKI: 5.4321

ChampSim completed all CPUs

Region of Interest Statistics

CPU 0 cumulative IPC: 0.990448 instructions: 10000002 cycles: 10096448
L1D TOTAL     ACCESS:    3210191  HIT:    3178322  MISS:      31869
L1D LOAD      ACCESS:    2335674  HIT:    2318708  MISS:      16966
L1D RFO       ACCESS:     874517  HIT:     859614  MISS:      14903
L1D PREFETCH  ACCESS:          0  HIT:          0  MISS:          0
L1D WRITEBACK ACCESS:          0  HIT:          0  MISS:          0
L1D PREFETCH  REQUESTED:          0  ISSUED:          0  FILLED:          0  USEFUL:          0  USELESS:          0
L1I TOTAL     ACCESS:    2346908  HIT:    2345728  MISS:       1180
L1I LOAD      ACCESS:    2346908  HIT:    2345728  MISS:       1180
L1I RFO       ACCESS:          0  HIT:          0  MISS:          0
L1I PREFETCH  ACCESS:          0  HIT:          0  MISS:          0
L1I WRITEBACK ACCESS:          0  HIT:          0  MISS:          0
L1I PREFETCH  REQUESTED:          0  ISSUED:          0  FILLED:          0  USEFUL:          0  USELESS:          0
L2C TOTAL     ACCESS:      51571  HIT:      50892  MISS:        679
L2C LOAD      ACCESS:      18146  HIT:      17470  MISS:        676
L2C RFO       ACCESS:      14797  HIT:      14794  MISS:          3
L2C PREFETCH  ACCESS:          0  HIT:          0  MISS:          0
L2C WRITEBACK ACCESS:      18628  HIT:      18628  MISS:          0
L2C PREFETCH  REQUESTED:          0  ISSUED:          0  FILLED:          0  USEFUL:          0  USELESS:          0
LLC TOTAL     ACCESS:        680  HIT:          9  MISS:        671
LLC LOAD      ACCESS:        676  HIT:          7  MISS:        669
LLC RFO       ACCESS:          3  HIT:          1  MISS:          2
LLC PREFETCH  ACCESS:          0  HIT:          0  MISS:          0
LLC WRITEBACK ACCESS:          1  HIT:          1  MISS:          0
LLC PREFETCH  REQUESTED:          0  ISSUED:          0  FILLED:          0  USEFUL:          0  USELESS:          0
DTLB TOTAL     ACCESS:    2719936  HIT:    2704299  MISS:      15637
DTLB LOAD      ACCESS:    2052858  HIT:    2041668  MISS:      11190
DTLB RFO       ACCESS:     667078  HIT:     662631  MISS:       4447
DTLB PREFETCH  ACCESS:          0  HIT:          0  MISS:          0
DTLB WRITEBACK ACCESS:          0  HIT:          0  MISS:          0
DTLB PREFETCH  REQUESTED:          0  ISSUED:          0  FILLED:          0  USEFUL:          0  USELESS:          0
ITLB TOTAL     ACCESS:    1768798  HIT:    1768797  MISS:          1
ITLB LOAD      ACCESS:    1768798  HIT:    1768797  MISS:          1
ITLB RFO       ACCESS:          0  HIT:          0  MISS:          0
ITLB PREFETCH  ACCESS:          0  HIT:          0  MISS:          0
ITLB WRITEBACK ACCESS:          0  HIT:          0  MISS:          0
ITLB PREFETCH  REQUESTED:          0  ISSUED:          0  FILLED:          0  USEFUL:          0  USELESS:          0
STLB TOTAL     ACCESS:      15638  HIT:      15632  MISS:          6
STLB LOAD      ACCESS:      11191  HIT:      11185  MISS:          6
STLB RFO       ACCESS:       4447  HIT:       4447  MISS:          0
STLB PREFETCH  ACCESS:          0  HIT:          0  MISS:          0
STLB WRITEBACK ACCESS:          0  HIT:          0  MISS:          0
STLB PREFETCH  REQUESTED:          0  ISSUED:          0  FILLED:          0  USEFUL:          0  USELESS:          0
Major fault: 0 Minor fault: 122

Invalid block evictions: 1817
DBP Decisions: 0
Mockingjay Decisions: 0
Writeback MKJ Decisions: 0

DB Predictions in [0,9]: 
0 1858
9 1


DRAM Statistics
 CHANNEL 0
 RQ ROW_BUFFER_HIT:        344  ROW_BUFFER_MISS:        327
 DBUS_CONGESTED:        228
 WQ ROW_BUFFER_HIT:          0  ROW_BUFFER_MISS:          0  FULL:          0

 AVG_CONGESTED_CYCLE: 13
