
*** ChampSim Multicore Out-of-Order Simulator ***

Warmup Instructions: 1000000
Simulation Instructions: 10000000
Number of CPUs: 1
LLC sets: 2048
LLC ways: 16
Off-chip DRAM Size: 4096 MB Channels: 1 Width: 64-bit Data Rate: 1600 MT/s

CPU 0 runs ./tracefiles/gobmk_76B.trace.xz
CPU 0 Bimodal branch predictor
sampler set details
set index: 2047
partial tag: 0000000000000000
lru: 0000
reuse bit: 0
trace: 0
valid: 0
********
sampler set details
set index: 1981
partial tag: 0000000000000000
lru: 0000
reuse bit: 0
trace: 0
valid: 0
********
sampler set details
set index: 1915
partial tag: 0000000000000000
lru: 0000
reuse bit: 0
trace: 0
valid: 0
********
sampler set details
set index: 792
partial tag: 0000000000000000
lru: 0000
reuse bit: 0
trace: 0
valid: 0
********
sampler set details
set index: 726
partial tag: 0000000000000000
lru: 0000
reuse bit: 0
trace: 0
valid: 0
********
sampler set details
set index: 660
partial tag: 0000000000000000
lru: 0000
reuse bit: 0
trace: 0
valid: 0
********
sampler set details
set index: 1849
partial tag: 0000000000000000
lru: 0000
reuse bit: 0
trace: 0
valid: 0
********
sampler set details
set index: 594
partial tag: 0000000000000000
lru: 0000
reuse bit: 0
trace: 0
valid: 0
********
sampler set details
set index: 1783
partial tag: 0000000000000000
lru: 0000
reuse bit: 0
trace: 0
valid: 0
********
sampler set details
set index: 528
partial tag: 0000000000000000
lru: 0000
reuse bit: 0
trace: 0
valid: 0
********
sampler set details
set index: 1717
partial tag: 0000000000000000
lru: 0000
reuse bit: 0
trace: 0
valid: 0
********
sampler set details
set index: 462
partial tag: 0000000000000000
lru: 0000
reuse bit: 0
trace: 0
valid: 0
********
sampler set details
set index: 1651
partial tag: 0000000000000000
lru: 0000
reuse bit: 0
trace: 0
valid: 0
********
sampler set details
set index: 396
partial tag: 0000000000000000
lru: 0000
reuse bit: 0
trace: 0
valid: 0
********
sampler set details
set index: 1585
partial tag: 0000000000000000
lru: 0000
reuse bit: 0
trace: 0
valid: 0
********
sampler set details
set index: 330
partial tag: 0000000000000000
lru: 0000
reuse bit: 0
trace: 0
valid: 0
********
sampler set details
set index: 1519
partial tag: 0000000000000000
lru: 0000
reuse bit: 0
trace: 0
valid: 0
********
sampler set details
set index: 264
partial tag: 0000000000000000
lru: 0000
reuse bit: 0
trace: 0
valid: 0
********
sampler set details
set index: 1453
partial tag: 0000000000000000
lru: 0000
reuse bit: 0
trace: 0
valid: 0
********
sampler set details
set index: 198
partial tag: 0000000000000000
lru: 0000
reuse bit: 0
trace: 0
valid: 0
********
sampler set details
set index: 1387
partial tag: 0000000000000000
lru: 0000
reuse bit: 0
trace: 0
valid: 0
********
sampler set details
set index: 132
partial tag: 0000000000000000
lru: 0000
reuse bit: 0
trace: 0
valid: 0
********
sampler set details
set index: 1321
partial tag: 0000000000000000
lru: 0000
reuse bit: 0
trace: 0
valid: 0
********
sampler set details
set index: 66
partial tag: 0000000000000000
lru: 0000
reuse bit: 0
trace: 0
valid: 0
********
sampler set details
set index: 1255
partial tag: 0000000000000000
lru: 0000
reuse bit: 0
trace: 0
valid: 0
********
sampler set details
set index: 0
partial tag: 0000000000000000
lru: 0000
reuse bit: 0
trace: 0
valid: 0
********
sampler set details
set index: 1189
partial tag: 0000000000000000
lru: 0000
reuse bit: 0
trace: 0
valid: 0
********
sampler set details
set index: 858
partial tag: 0000000000000000
lru: 0000
reuse bit: 0
trace: 0
valid: 0
********
sampler set details
set index: 924
partial tag: 0000000000000000
lru: 0000
reuse bit: 0
trace: 0
valid: 0
********
sampler set details
set index: 990
partial tag: 0000000000000000
lru: 0000
reuse bit: 0
trace: 0
valid: 0
********
sampler set details
set index: 1057
partial tag: 0000000000000000
lru: 0000
reuse bit: 0
trace: 0
valid: 0
********
sampler set details
set index: 1123
partial tag: 0000000000000000
lru: 0000
reuse bit: 0
trace: 0
valid: 0
********
sampler set details
set index: 2047
partial tag: 0000000000000000
lru: 0000
reuse bit: 0
trace: 0
valid: 0
********
sampler set details
set index: 1981
partial tag: 0000000000000000
lru: 0000
reuse bit: 0
trace: 0
valid: 0
********
sampler set details
set index: 1915
partial tag: 0000000000000000
lru: 0000
reuse bit: 0
trace: 0
valid: 0
********
sampler set details
set index: 792
partial tag: 0000000000000000
lru: 0000
reuse bit: 0
trace: 0
valid: 0
********
sampler set details
set index: 726
partial tag: 0000000000000000
lru: 0000
reuse bit: 0
trace: 0
valid: 0
********
sampler set details
set index: 660
partial tag: 0000000000000000
lru: 0000
reuse bit: 0
trace: 0
valid: 0
********
sampler set details
set index: 1849
partial tag: 0000000000000000
lru: 0000
reuse bit: 0
trace: 0
valid: 0
********
sampler set details
set index: 594
partial tag: 0000000000000000
lru: 0000
reuse bit: 0
trace: 0
valid: 0
********
sampler set details
set index: 1783
partial tag: 0000000000000000
lru: 0000
reuse bit: 0
trace: 0
valid: 0
********
sampler set details
set index: 528
partial tag: 0000000000000000
lru: 0000
reuse bit: 0
trace: 0
valid: 0
********
sampler set details
set index: 1717
partial tag: 0000000000000000
lru: 0000
reuse bit: 0
trace: 0
valid: 0
********
sampler set details
set index: 462
partial tag: 0000000000000000
lru: 0000
reuse bit: 0
trace: 0
valid: 0
********
sampler set details
set index: 1651
partial tag: 0000000000000000
lru: 0000
reuse bit: 0
trace: 0
valid: 0
********
sampler set details
set index: 396
partial tag: 0000000000000000
lru: 0000
reuse bit: 0
trace: 0
valid: 0
********
sampler set details
set index: 1585
partial tag: 0000000000000000
lru: 0000
reuse bit: 0
trace: 0
valid: 0
********
sampler set details
set index: 330
partial tag: 0000000000000000
lru: 0000
reuse bit: 0
trace: 0
valid: 0
********
sampler set details
set index: 1519
partial tag: 0000000000000000
lru: 0000
reuse bit: 0
trace: 0
valid: 0
********
sampler set details
set index: 264
partial tag: 0000000000000000
lru: 0000
reuse bit: 0
trace: 0
valid: 0
********
sampler set details
set index: 1453
partial tag: 0000000000000000
lru: 0000
reuse bit: 0
trace: 0
valid: 0
********
sampler set details
set index: 198
partial tag: 0000000000000000
lru: 0000
reuse bit: 0
trace: 0
valid: 0
********
sampler set details
set index: 1387
partial tag: 0000000000000000
lru: 0000
reuse bit: 0
trace: 0
valid: 0
********
sampler set details
set index: 132
partial tag: 0000000000000000
lru: 0000
reuse bit: 0
trace: 0
valid: 0
********
sampler set details
set index: 1321
partial tag: 0000000000000000
lru: 0000
reuse bit: 0
trace: 0
valid: 0
********
sampler set details
set index: 66
partial tag: 0000000000000000
lru: 0000
reuse bit: 0
trace: 0
valid: 0
********
sampler set details
set index: 1255
partial tag: 0000000000000000
lru: 0000
reuse bit: 0
trace: 0
valid: 0
********
sampler set details
set index: 0
partial tag: 0000000000000000
lru: 0000
reuse bit: 0
trace: 0
valid: 0
********
sampler set details
set index: 1189
partial tag: 0000000000000000
lru: 0000
reuse bit: 0
trace: 0
valid: 0
********
sampler set details
set index: 858
partial tag: 0000000000000000
lru: 0000
reuse bit: 0
trace: 0
valid: 0
********
sampler set details
set index: 924
partial tag: 0000000000000000
lru: 0000
reuse bit: 0
trace: 0
valid: 0
********
sampler set details
set index: 990
partial tag: 0000000000000000
lru: 0000
reuse bit: 0
trace: 0
valid: 0
********
sampler set details
set index: 1057
partial tag: 0000000110111110
lru: 0000
reuse bit: 1
trace: 1066
valid: 1
********
sampler set details
set index: 1123
partial tag: 0000000000000000
lru: 0000
reuse bit: 0
trace: 0
valid: 0
********
sampler set details
set index: 2047
partial tag: 0000000000000000
lru: 0000
reuse bit: 0
trace: 0
valid: 0
********
sampler set details
set index: 1981
partial tag: 0000000000000000
lru: 0000
reuse bit: 0
trace: 0
valid: 0
********
sampler set details
set index: 1915
partial tag: 0000000000000000
lru: 0000
reuse bit: 0
trace: 0
valid: 0
********
sampler set details
set index: 792
partial tag: 0000000000000000
lru: 0000
reuse bit: 0
trace: 0
valid: 0
********
sampler set details
set index: 726
partial tag: 0000000000000000
lru: 0000
reuse bit: 0
trace: 0
valid: 0
********
sampler set details
set index: 660
partial tag: 0000000000000000
lru: 0000
reuse bit: 0
trace: 0
valid: 0
********
sampler set details
set index: 1849
partial tag: 0000000000000000
lru: 0000
reuse bit: 0
trace: 0
valid: 0
********
sampler set details
set index: 594
partial tag: 0000000000000000
lru: 0000
reuse bit: 0
trace: 0
valid: 0
********
sampler set details
set index: 1783
partial tag: 0000000000000000
lru: 0000
reuse bit: 0
trace: 0
valid: 0
********
sampler set details
set index: 528
partial tag: 0000000000000000
lru: 0000
reuse bit: 0
trace: 0
valid: 0
********
sampler set details
set index: 1717
partial tag: 0000000000000000
lru: 0000
reuse bit: 0
trace: 0
valid: 0
********
sampler set details
set index: 462
partial tag: 0000000000000000
lru: 0000
reuse bit: 0
trace: 0
valid: 0
********
sampler set details
set index: 1651
partial tag: 0000000000000000
lru: 0000
reuse bit: 0
trace: 0
valid: 0
********
sampler set details
set index: 396
partial tag: 0000000000000000
lru: 0000
reuse bit: 0
trace: 0
valid: 0
********
sampler set details
set index: 1585
partial tag: 0000000000000000
lru: 0000
reuse bit: 0
trace: 0
valid: 0
********
sampler set details
set index: 330
partial tag: 0000000000000000
lru: 0000
reuse bit: 0
trace: 0
valid: 0
********
sampler set details
set index: 1519
partial tag: 0000000000000000
lru: 0000
reuse bit: 0
trace: 0
valid: 0
********
sampler set details
set index: 264
partial tag: 0000000000000000
lru: 0000
reuse bit: 0
trace: 0
valid: 0
********
sampler set details
set index: 1453
partial tag: 0000000000000000
lru: 0000
reuse bit: 0
trace: 0
valid: 0
********
sampler set details
set index: 198
partial tag: 0000000000000000
lru: 0000
reuse bit: 0
trace: 0
valid: 0
********
sampler set details
set index: 1387
partial tag: 0000000000000000
lru: 0000
reuse bit: 0
trace: 0
valid: 0
********
sampler set details
set index: 132
partial tag: 0000000000000000
lru: 0000
reuse bit: 0
trace: 0
valid: 0
********
sampler set details
set index: 1321
partial tag: 0000000000000000
lru: 0000
reuse bit: 0
trace: 0
valid: 0
********
sampler set details
set index: 66
partial tag: 0000000000000000
lru: 0000
reuse bit: 0
trace: 0
valid: 0
********
sampler set details
set index: 1255
partial tag: 0000000000000000
lru: 0000
reuse bit: 0
trace: 0
valid: 0
********
sampler set details
set index: 0
partial tag: 0000000110111110
lru: 0000
reuse bit: 1
trace: 14
valid: 1
********
sampler set details
set index: 1189
partial tag: 0000000000000000
lru: 0000
reuse bit: 0
trace: 0
valid: 0
********
sampler set details
set index: 858
partial tag: 0000000000000000
lru: 0000
reuse bit: 0
trace: 0
valid: 0
********
sampler set details
set index: 924
partial tag: 0000000000000000
lru: 0000
reuse bit: 0
trace: 0
valid: 0
********
sampler set details
set index: 990
partial tag: 0000000000000000
lru: 0000
reuse bit: 0
trace: 0
valid: 0
********
sampler set details
set index: 1057
partial tag: 0000000110111110
lru: 0000
reuse bit: 1
trace: 1066
valid: 1
********
sampler set details
set index: 1123
partial tag: 0000000000000000
lru: 0000
reuse bit: 0
trace: 0
valid: 0
********
sampler set details
set index: 2047
partial tag: 0000000000000000
lru: 0000
reuse bit: 0
trace: 0
valid: 0
********
sampler set details
set index: 1981
partial tag: 0000000000000000
lru: 0000
reuse bit: 0
trace: 0
valid: 0
********
sampler set details
set index: 1915
partial tag: 0000000000000000
lru: 0000
reuse bit: 0
trace: 0
valid: 0
********
sampler set details
set index: 792
partial tag: 0000000000000000
lru: 0000
reuse bit: 0
trace: 0
valid: 0
********
sampler set details
set index: 726
partial tag: 0000000000000000
lru: 0000
reuse bit: 0
trace: 0
valid: 0
********
sampler set details
set index: 660
partial tag: 0000000000000000
lru: 0000
reuse bit: 0
trace: 0
valid: 0
********
sampler set details
set index: 1849
partial tag: 0000000000000000
lru: 0000
reuse bit: 0
trace: 0
valid: 0
********
sampler set details
set index: 594
partial tag: 0000000000000000
lru: 0000
reuse bit: 0
trace: 0
valid: 0
********
sampler set details
set index: 1783
partial tag: 0000000000000000
lru: 0000
reuse bit: 0
trace: 0
valid: 0
********
sampler set details
set index: 528
partial tag: 0000000000000000
lru: 0000
reuse bit: 0
trace: 0
valid: 0
********
sampler set details
set index: 1717
partial tag: 0000000000000000
lru: 0000
reuse bit: 0
trace: 0
valid: 0
********
sampler set details
set index: 462
partial tag: 0000000000000000
lru: 0000
reuse bit: 0
trace: 0
valid: 0
********
sampler set details
set index: 1651
partial tag: 0000000000000000
lru: 0000
reuse bit: 0
trace: 0
valid: 0
********
sampler set details
set index: 396
partial tag: 0000000000000000
lru: 0000
reuse bit: 0
trace: 0
valid: 0
********
sampler set details
set index: 1585
partial tag: 0000000000000000
lru: 0000
reuse bit: 0
trace: 0
valid: 0
********
sampler set details
set index: 330
partial tag: 0000000000000000
lru: 0000
reuse bit: 0
trace: 0
valid: 0
********
sampler set details
set index: 1519
partial tag: 0000000000000000
lru: 0000
reuse bit: 0
trace: 0
valid: 0
********
sampler set details
set index: 264
partial tag: 0000000000000000
lru: 0000
reuse bit: 0
trace: 0
valid: 0
********
sampler set details
set index: 1453
partial tag: 0000000000000000
lru: 0000
reuse bit: 0
trace: 0
valid: 0
********
sampler set details
set index: 198
partial tag: 0000000000000000
lru: 0000
reuse bit: 0
trace: 0
valid: 0
********
sampler set details
set index: 1387
partial tag: 0000000000000000
lru: 0000
reuse bit: 0
trace: 0
valid: 0
********
sampler set details
set index: 132
partial tag: 0000000110111110
lru: 0000
reuse bit: 1
trace: 555
valid: 1
********
sampler set details
set index: 1321
partial tag: 0000000000000000
lru: 0000
reuse bit: 0
trace: 0
valid: 0
********
sampler set details
set index: 66
partial tag: 0000000000000000
lru: 0000
reuse bit: 0
trace: 0
valid: 0
********
sampler set details
set index: 1255
partial tag: 0000000000000000
lru: 0000
reuse bit: 0
trace: 0
valid: 0
********
sampler set details
set index: 0
partial tag: 0000000110111110
lru: 0000
reuse bit: 1
trace: 14
valid: 1
********
sampler set details
set index: 1189
partial tag: 0000000000000000
lru: 0000
reuse bit: 0
trace: 0
valid: 0
********
sampler set details
set index: 858
partial tag: 0000000000000000
lru: 0000
reuse bit: 0
trace: 0
valid: 0
********
sampler set details
set index: 924
partial tag: 0000000000000000
lru: 0000
reuse bit: 0
trace: 0
valid: 0
********
sampler set details
set index: 990
partial tag: 0000000000000000
lru: 0000
reuse bit: 0
trace: 0
valid: 0
********
sampler set details
set index: 1057
partial tag: 0000000110111110
lru: 0000
reuse bit: 1
trace: 1066
valid: 1
********
sampler set details
set index: 1123
partial tag: 0000000000000000
lru: 0000
reuse bit: 0
trace: 0
valid: 0
********
sampler set details
set index: 2047
partial tag: 0000000000000000
lru: 0000
reuse bit: 0
trace: 0
valid: 0
********
sampler set details
set index: 1981
partial tag: 0000000000000000
lru: 0000
reuse bit: 0
trace: 0
valid: 0
********
sampler set details
set index: 1915
partial tag: 0000000000000000
lru: 0000
reuse bit: 0
trace: 0
valid: 0
********
sampler set details
set index: 792
partial tag: 0000000000000000
lru: 0000
reuse bit: 0
trace: 0
valid: 0
********
sampler set details
set index: 726
partial tag: 0000000000000000
lru: 0000
reuse bit: 0
trace: 0
valid: 0
********
sampler set details
set index: 660
partial tag: 0000000000000000
lru: 0000
reuse bit: 0
trace: 0
valid: 0
********
sampler set details
set index: 1849
partial tag: 0000000000000000
lru: 0000
reuse bit: 0
trace: 0
valid: 0
********
sampler set details
set index: 594
partial tag: 0000000000000000
lru: 0000
reuse bit: 0
trace: 0
valid: 0
********
sampler set details
set index: 1783
partial tag: 0000000000000000
lru: 0000
reuse bit: 0
trace: 0
valid: 0
********
sampler set details
set index: 528
partial tag: 0000000000000000
lru: 0000
reuse bit: 0
trace: 0
valid: 0
********
sampler set details
set index: 1717
partial tag: 0000000000000000
lru: 0000
reuse bit: 0
trace: 0
valid: 0
********
sampler set details
set index: 462
partial tag: 0000000000000000
lru: 0000
reuse bit: 0
trace: 0
valid: 0
********
sampler set details
set index: 1651
partial tag: 0000000000000000
lru: 0000
reuse bit: 0
trace: 0
valid: 0
********
sampler set details
set index: 396
partial tag: 0000000000000000
lru: 0000
reuse bit: 0
trace: 0
valid: 0
********
sampler set details
set index: 1585
partial tag: 0000000000000000
lru: 0000
reuse bit: 0
trace: 0
valid: 0
********
sampler set details
set index: 330
partial tag: 0000000000000000
lru: 0000
reuse bit: 0
trace: 0
valid: 0
********
sampler set details
set index: 1519
partial tag: 0000000000000000
lru: 0000
reuse bit: 0
trace: 0
valid: 0
********
sampler set details
set index: 264
partial tag: 0000000000000000
lru: 0000
reuse bit: 0
trace: 0
valid: 0
********
sampler set details
set index: 1453
partial tag: 0000000000000000
lru: 0000
reuse bit: 0
trace: 0
valid: 0
********
sampler set details
set index: 198
partial tag: 0000000000000000
lru: 0000
reuse bit: 0
trace: 0
valid: 0
********
sampler set details
set index: 1387
partial tag: 0000000000000000
lru: 0000
reuse bit: 0
trace: 0
valid: 0
********
sampler set details
set index: 132
partial tag: 0000000110111110
lru: 0000
reuse bit: 1
trace: 555
valid: 1
********
sampler set details
set index: 1321
partial tag: 0000000000000000
lru: 0000
reuse bit: 0
trace: 0
valid: 0
********
sampler set details
set index: 66
partial tag: 0000000000000000
lru: 0000
reuse bit: 0
trace: 0
valid: 0
********
sampler set details
set index: 1255
partial tag: 0000000000000000
lru: 0000
reuse bit: 0
trace: 0
valid: 0
********
sampler set details
set index: 0
partial tag: 0000000110111110
lru: 0000
reuse bit: 1
trace: 14
valid: 1
********
sampler set details
set index: 1189
partial tag: 0000000000000000
lru: 0000
reuse bit: 0
trace: 0
valid: 0
********
sampler set details
set index: 858
partial tag: 0000000110111110
lru: 0000
reuse bit: 1
trace: 989
valid: 1
********
sampler set details
set index: 924
partial tag: 0000000000000000
lru: 0000
reuse bit: 0
trace: 0
valid: 0
********
sampler set details
set index: 990
partial tag: 0000000000000000
lru: 0000
reuse bit: 0
trace: 0
valid: 0
********
sampler set details
set index: 1057
partial tag: 0000000110111110
lru: 0000
reuse bit: 1
trace: 1066
valid: 1
********
sampler set details
set index: 1123
partial tag: 0000000000000000
lru: 0000
reuse bit: 0
trace: 0
valid: 0
********
sampler set details
set index: 2047
partial tag: 0000000000000000
lru: 0000
reuse bit: 0
trace: 0
valid: 0
********
sampler set details
set index: 1981
partial tag: 0000000000000000
lru: 0000
reuse bit: 0
trace: 0
valid: 0
********
sampler set details
set index: 1915
partial tag: 0000000000000000
lru: 0000
reuse bit: 0
trace: 0
valid: 0
********
sampler set details
set index: 792
partial tag: 0000000000000000
lru: 0000
reuse bit: 0
trace: 0
valid: 0
********
sampler set details
set index: 726
partial tag: 0000000000000000
lru: 0000
reuse bit: 0
trace: 0
valid: 0
********
sampler set details
set index: 660
partial tag: 0000000000000000
lru: 0000
reuse bit: 0
trace: 0
valid: 0
********
sampler set details
set index: 1849
partial tag: 0000000000000000
lru: 0000
reuse bit: 0
trace: 0
valid: 0
********
sampler set details
set index: 594
partial tag: 0000000000000000
lru: 0000
reuse bit: 0
trace: 0
valid: 0
********
sampler set details
set index: 1783
partial tag: 0000000000000000
lru: 0000
reuse bit: 0
trace: 0
valid: 0
********
sampler set details
set index: 528
partial tag: 0000000000000000
lru: 0000
reuse bit: 0
trace: 0
valid: 0
********
sampler set details
set index: 1717
partial tag: 0000000000000000
lru: 0000
reuse bit: 0
trace: 0
valid: 0
********
sampler set details
set index: 462
partial tag: 0000000000000000
lru: 0000
reuse bit: 0
trace: 0
valid: 0
********
sampler set details
set index: 1651
partial tag: 0000000000000000
lru: 0000
reuse bit: 0
trace: 0
valid: 0
********
sampler set details
set index: 396
partial tag: 0000000000000000
lru: 0000
reuse bit: 0
trace: 0
valid: 0
********
sampler set details
set index: 1585
partial tag: 0000000000000000
lru: 0000
reuse bit: 0
trace: 0
valid: 0
********
sampler set details
set index: 330
partial tag: 0000000000000000
lru: 0000
reuse bit: 0
trace: 0
valid: 0
********
sampler set details
set index: 1519
partial tag: 0000000000000000
lru: 0000
reuse bit: 0
trace: 0
valid: 0
********
sampler set details
set index: 264
partial tag: 0000000000000000
lru: 0000
reuse bit: 0
trace: 0
valid: 0
********
sampler set details
set index: 1453
partial tag: 0000000000000000
lru: 0000
reuse bit: 0
trace: 0
valid: 0
********
sampler set details
set index: 198
partial tag: 0000000000000000
lru: 0000
reuse bit: 0
trace: 0
valid: 0
********
sampler set details
set index: 1387
partial tag: 0000000000000000
lru: 0000
reuse bit: 0
trace: 0
valid: 0
********
sampler set details
set index: 132
partial tag: 0000000110111110
lru: 0000
reuse bit: 1
trace: 555
valid: 1
********
sampler set details
set index: 1321
partial tag: 0000000000000000
lru: 0000
reuse bit: 0
trace: 0
valid: 0
********
sampler set details
set index: 66
partial tag: 0000000000000000
lru: 0000
reuse bit: 0
trace: 0
valid: 0
********
sampler set details
set index: 1255
partial tag: 0000000000000000
lru: 0000
reuse bit: 0
trace: 0
valid: 0
********
sampler set details
set index: 0
partial tag: 0000000110111110
lru: 0000
reuse bit: 1
trace: 14
valid: 1
********
sampler set details
set index: 1189
partial tag: 0000000000000000
lru: 0000
reuse bit: 0
trace: 0
valid: 0
********
sampler set details
set index: 858
partial tag: 0000000110111110
lru: 0000
reuse bit: 1
trace: 989
valid: 1
********
sampler set details
set index: 924
partial tag: 0000000110111110
lru: 0000
reuse bit: 1
trace: 989
valid: 1
********
sampler set details
set index: 990
partial tag: 0000000000000000
lru: 0000
reuse bit: 0
trace: 0
valid: 0
********
sampler set details
set index: 1057
partial tag: 0000000110111110
lru: 0000
reuse bit: 1
trace: 1066
valid: 1
********
sampler set details
set index: 1123
partial tag: 0000000000000000
lru: 0000
reuse bit: 0
trace: 0
valid: 0
********
sampler set details
set index: 2047
partial tag: 0000000000000000
lru: 0000
reuse bit: 0
trace: 0
valid: 0
********
sampler set details
set index: 1981
partial tag: 0000000000000000
lru: 0000
reuse bit: 0
trace: 0
valid: 0
********
sampler set details
set index: 1915
partial tag: 0000000000000000
lru: 0000
reuse bit: 0
trace: 0
valid: 0
********
sampler set details
set index: 792
partial tag: 0000000000000000
lru: 0000
reuse bit: 0
trace: 0
valid: 0
********
sampler set details
set index: 726
partial tag: 0000000000000000
lru: 0000
reuse bit: 0
trace: 0
valid: 0
********
sampler set details
set index: 660
partial tag: 0000000000000000
lru: 0000
reuse bit: 0
trace: 0
valid: 0
********
sampler set details
set index: 1849
partial tag: 0000000000000000
lru: 0000
reuse bit: 0
trace: 0
valid: 0
********
sampler set details
set index: 594
partial tag: 0000000000000000
lru: 0000
reuse bit: 0
trace: 0
valid: 0
********
sampler set details
set index: 1783
partial tag: 0000000000000000
lru: 0000
reuse bit: 0
trace: 0
valid: 0
********
sampler set details
set index: 528
partial tag: 0000000000000000
lru: 0000
reuse bit: 0
trace: 0
valid: 0
********
sampler set details
set index: 1717
partial tag: 0000000110111110
lru: 0000
reuse bit: 1
trace: 421
valid: 1
********
sampler set details
set index: 462
partial tag: 0000000000000000
lru: 0000
reuse bit: 0
trace: 0
valid: 0
********
sampler set details
set index: 1651
partial tag: 0000000000000000
lru: 0000
reuse bit: 0
trace: 0
valid: 0
********
sampler set details
set index: 396
partial tag: 0000000000000000
lru: 0000
reuse bit: 0
trace: 0
valid: 0
********
sampler set details
set index: 1585
partial tag: 0000000000000000
lru: 0000
reuse bit: 0
trace: 0
valid: 0
********
sampler set details
set index: 330
partial tag: 0000000000000000
lru: 0000
reuse bit: 0
trace: 0
valid: 0
********
sampler set details
set index: 1519
partial tag: 0000000000000000
lru: 0000
reuse bit: 0
trace: 0
valid: 0
********
sampler set details
set index: 264
partial tag: 0000000000000000
lru: 0000
reuse bit: 0
trace: 0
valid: 0
********
sampler set details
set index: 1453
partial tag: 0000000000000000
lru: 0000
reuse bit: 0
trace: 0
valid: 0
********
sampler set details
set index: 198
partial tag: 0000000000000000
lru: 0000
reuse bit: 0
trace: 0
valid: 0
********
sampler set details
set index: 1387
partial tag: 0000000000000000
lru: 0000
reuse bit: 0
trace: 0
valid: 0
********
sampler set details
set index: 132
partial tag: 0000000110111110
lru: 0000
reuse bit: 1
trace: 555
valid: 1
********
sampler set details
set index: 1321
partial tag: 0000000000000000
lru: 0000
reuse bit: 0
trace: 0
valid: 0
********
sampler set details
set index: 66
partial tag: 0000000000000000
lru: 0000
reuse bit: 0
trace: 0
valid: 0
********
sampler set details
set index: 1255
partial tag: 0000000000000000
lru: 0000
reuse bit: 0
trace: 0
valid: 0
********
sampler set details
set index: 0
partial tag: 0000000110111110
lru: 0000
reuse bit: 1
trace: 14
valid: 1
********
sampler set details
set index: 1189
partial tag: 0000000000000000
lru: 0000
reuse bit: 0
trace: 0
valid: 0
********
sampler set details
set index: 858
partial tag: 0000000110111110
lru: 0000
reuse bit: 1
trace: 989
valid: 1
********
sampler set details
set index: 924
partial tag: 0000000110111110
lru: 0000
reuse bit: 1
trace: 989
valid: 1
********
sampler set details
set index: 990
partial tag: 0000000000000000
lru: 0000
reuse bit: 0
trace: 0
valid: 0
********
sampler set details
set index: 1057
partial tag: 0000000110111110
lru: 0000
reuse bit: 1
trace: 1066
valid: 1
********
sampler set details
set index: 1123
partial tag: 0000000000000000
lru: 0000
reuse bit: 0
trace: 0
valid: 0
********
sampler set details
set index: 2047
partial tag: 0000000000000000
lru: 0000
reuse bit: 0
trace: 0
valid: 0
********
sampler set details
set index: 1981
partial tag: 0000000110111110
lru: 0000
reuse bit: 1
trace: 607
valid: 1
********
sampler set details
set index: 1915
partial tag: 0000000000000000
lru: 0000
reuse bit: 0
trace: 0
valid: 0
********
sampler set details
set index: 792
partial tag: 0000000000000000
lru: 0000
reuse bit: 0
trace: 0
valid: 0
********
sampler set details
set index: 726
partial tag: 0000000000000000
lru: 0000
reuse bit: 0
trace: 0
valid: 0
********
sampler set details
set index: 660
partial tag: 0000000000000000
lru: 0000
reuse bit: 0
trace: 0
valid: 0
********
sampler set details
set index: 1849
partial tag: 0000000000000000
lru: 0000
reuse bit: 0
trace: 0
valid: 0
********
sampler set details
set index: 594
partial tag: 0000000000000000
lru: 0000
reuse bit: 0
trace: 0
valid: 0
********
sampler set details
set index: 1783
partial tag: 0000000000000000
lru: 0000
reuse bit: 0
trace: 0
valid: 0
********
sampler set details
set index: 528
partial tag: 0000000000000000
lru: 0000
reuse bit: 0
trace: 0
valid: 0
********
sampler set details
set index: 1717
partial tag: 0000000110111110
lru: 0000
reuse bit: 1
trace: 421
valid: 1
********
sampler set details
set index: 462
partial tag: 0000000000000000
lru: 0000
reuse bit: 0
trace: 0
valid: 0
********
sampler set details
set index: 1651
partial tag: 0000000000000000
lru: 0000
reuse bit: 0
trace: 0
valid: 0
********
sampler set details
set index: 396
partial tag: 0000000000000000
lru: 0000
reuse bit: 0
trace: 0
valid: 0
********
sampler set details
set index: 1585
partial tag: 0000000000000000
lru: 0000
reuse bit: 0
trace: 0
valid: 0
********
sampler set details
set index: 330
partial tag: 0000000000000000
lru: 0000
reuse bit: 0
trace: 0
valid: 0
********
sampler set details
set index: 1519
partial tag: 0000000000000000
lru: 0000
reuse bit: 0
trace: 0
valid: 0
********
sampler set details
set index: 264
partial tag: 0000000000000000
lru: 0000
reuse bit: 0
trace: 0
valid: 0
********
sampler set details
set index: 1453
partial tag: 0000000000000000
lru: 0000
reuse bit: 0
trace: 0
valid: 0
********
sampler set details
set index: 198
partial tag: 0000000000000000
lru: 0000
reuse bit: 0
trace: 0
valid: 0
********
sampler set details
set index: 1387
partial tag: 0000000000000000
lru: 0000
reuse bit: 0
trace: 0
valid: 0
********
sampler set details
set index: 132
partial tag: 0000000110111110
lru: 0000
reuse bit: 1
trace: 555
valid: 1
********
sampler set details
set index: 1321
partial tag: 0000000000000000
lru: 0000
reuse bit: 0
trace: 0
valid: 0
********
sampler set details
set index: 66
partial tag: 0000000000000000
lru: 0000
reuse bit: 0
trace: 0
valid: 0
********
sampler set details
set index: 1255
partial tag: 0000000000000000
lru: 0000
reuse bit: 0
trace: 0
valid: 0
********
sampler set details
set index: 0
partial tag: 0000000110111110
lru: 0000
reuse bit: 1
trace: 14
valid: 1
********
sampler set details
set index: 1189
partial tag: 0000000000000000
lru: 0000
reuse bit: 0
trace: 0
valid: 0
********
sampler set details
set index: 858
partial tag: 0000000110111110
lru: 0000
reuse bit: 1
trace: 989
valid: 1
********
sampler set details
set index: 924
partial tag: 0000000110111110
lru: 0000
reuse bit: 1
trace: 989
valid: 1
********
sampler set details
set index: 990
partial tag: 0000000000000000
lru: 0000
reuse bit: 0
trace: 0
valid: 0
********
sampler set details
set index: 1057
partial tag: 0000000110111110
lru: 0000
reuse bit: 1
trace: 1066
valid: 1
********
sampler set details
set index: 1123
partial tag: 0000000000000000
lru: 0000
reuse bit: 0
trace: 0
valid: 0
********
sampler set details
set index: 2047
partial tag: 0000000000000000
lru: 0000
reuse bit: 0
trace: 0
valid: 0
********
sampler set details
set index: 1981
partial tag: 0000000110111110
lru: 0000
reuse bit: 1
trace: 607
valid: 1
********
sampler set details
set index: 1915
partial tag: 0000000000000000
lru: 0000
reuse bit: 0
trace: 0
valid: 0
********
sampler set details
set index: 792
partial tag: 0000000000000000
lru: 0000
reuse bit: 0
trace: 0
valid: 0
********
sampler set details
set index: 726
partial tag: 0000000000000000
lru: 0000
reuse bit: 0
trace: 0
valid: 0
********
sampler set details
set index: 660
partial tag: 0000000000000000
lru: 0000
reuse bit: 0
trace: 0
valid: 0
********
sampler set details
set index: 1849
partial tag: 0000000000000000
lru: 0000
reuse bit: 0
trace: 0
valid: 0
********
sampler set details
set index: 594
partial tag: 0000000000000000
lru: 0000
reuse bit: 0
trace: 0
valid: 0
********
sampler set details
set index: 1783
partial tag: 0000000000000000
lru: 0000
reuse bit: 0
trace: 0
valid: 0
********
sampler set details
set index: 528
partial tag: 0000000000000000
lru: 0000
reuse bit: 0
trace: 0
valid: 0
********
sampler set details
set index: 1717
partial tag: 0000000110111110
lru: 0000
reuse bit: 1
trace: 421
valid: 1
********
sampler set details
set index: 462
partial tag: 0000000000000000
lru: 0000
reuse bit: 0
trace: 0
valid: 0
********
sampler set details
set index: 1651
partial tag: 0000000000000000
lru: 0000
reuse bit: 0
trace: 0
valid: 0
********
sampler set details
set index: 396
partial tag: 0000000000000000
lru: 0000
reuse bit: 0
trace: 0
valid: 0
********
sampler set details
set index: 1585
partial tag: 0000000000000000
lru: 0000
reuse bit: 0
trace: 0
valid: 0
********
sampler set details
set index: 330
partial tag: 0000000000000000
lru: 0000
reuse bit: 0
trace: 0
valid: 0
********
sampler set details
set index: 1519
partial tag: 0000000000000000
lru: 0000
reuse bit: 0
trace: 0
valid: 0
********
sampler set details
set index: 264
partial tag: 0000000000000000
lru: 0000
reuse bit: 0
trace: 0
valid: 0
********
sampler set details
set index: 1453
partial tag: 0000000000000000
lru: 0000
reuse bit: 0
trace: 0
valid: 0
********
sampler set details
set index: 198
partial tag: 0000000000000000
lru: 0000
reuse bit: 0
trace: 0
valid: 0
********
sampler set details
set index: 1387
partial tag: 0000000000000000
lru: 0000
reuse bit: 0
trace: 0
valid: 0
********
sampler set details
set index: 132
partial tag: 0000000110111110
lru: 0000
reuse bit: 1
trace: 555
valid: 1
********
sampler set details
set index: 1321
partial tag: 0000000000000000
lru: 0000
reuse bit: 0
trace: 0
valid: 0
********
sampler set details
set index: 66
partial tag: 0000000110111110
lru: 0000
reuse bit: 1
trace: 68
valid: 1
********
sampler set details
set index: 1255
partial tag: 0000000000000000
lru: 0000
reuse bit: 0
trace: 0
valid: 0
********
sampler set details
set index: 0
partial tag: 0000000110111110
lru: 0000
reuse bit: 1
trace: 14
valid: 1
********
sampler set details
set index: 1189
partial tag: 0000000000000000
lru: 0000
reuse bit: 0
trace: 0
valid: 0
********
sampler set details
set index: 858
partial tag: 0000000110111110
lru: 0000
reuse bit: 1
trace: 989
valid: 1
********
sampler set details
set index: 924
partial tag: 0000000110111110
lru: 0000
reuse bit: 1
trace: 989
valid: 1
********
sampler set details
set index: 990
partial tag: 0000000000000000
lru: 0000
reuse bit: 0
trace: 0
valid: 0
********
sampler set details
set index: 1057
partial tag: 0000000110111110
lru: 0000
reuse bit: 1
trace: 1066
valid: 1
********
sampler set details
set index: 1123
partial tag: 0000000000000000
lru: 0000
reuse bit: 0
trace: 0
valid: 0
********
sampler set details
set index: 2047
partial tag: 0000000000000000
lru: 0000
reuse bit: 0
trace: 0
valid: 0
********
sampler set details
set index: 1981
partial tag: 0000000110111110
lru: 0000
reuse bit: 1
trace: 607
valid: 1
********
sampler set details
set index: 1915
partial tag: 0000000110111110
lru: 0000
reuse bit: 1
trace: 1888
valid: 1
********
sampler set details
set index: 792
partial tag: 0000000000000000
lru: 0000
reuse bit: 0
trace: 0
valid: 0
********
sampler set details
set index: 726
partial tag: 0000000000000000
lru: 0000
reuse bit: 0
trace: 0
valid: 0
********
sampler set details
set index: 660
partial tag: 0000000000000000
lru: 0000
reuse bit: 0
trace: 0
valid: 0
********
sampler set details
set index: 1849
partial tag: 0000000000000000
lru: 0000
reuse bit: 0
trace: 0
valid: 0
********
sampler set details
set index: 594
partial tag: 0000000000000000
lru: 0000
reuse bit: 0
trace: 0
valid: 0
********
sampler set details
set index: 1783
partial tag: 0000000000000000
lru: 0000
reuse bit: 0
trace: 0
valid: 0
********
sampler set details
set index: 528
partial tag: 0000000000000000
lru: 0000
reuse bit: 0
trace: 0
valid: 0
********
sampler set details
set index: 1717
partial tag: 0000000110111110
lru: 0000
reuse bit: 1
trace: 421
valid: 1
********
sampler set details
set index: 462
partial tag: 0000000000000000
lru: 0000
reuse bit: 0
trace: 0
valid: 0
********
sampler set details
set index: 1651
partial tag: 0000000000000000
lru: 0000
reuse bit: 0
trace: 0
valid: 0
********
sampler set details
set index: 396
partial tag: 0000000000000000
lru: 0000
reuse bit: 0
trace: 0
valid: 0
********
sampler set details
set index: 1585
partial tag: 0000000000000000
lru: 0000
reuse bit: 0
trace: 0
valid: 0
********
sampler set details
set index: 330
partial tag: 0000000000000000
lru: 0000
reuse bit: 0
trace: 0
valid: 0
********
sampler set details
set index: 1519
partial tag: 0000000000000000
lru: 0000
reuse bit: 0
trace: 0
valid: 0
********
sampler set details
set index: 264
partial tag: 0000000000000000
lru: 0000
reuse bit: 0
trace: 0
valid: 0
********
sampler set details
set index: 1453
partial tag: 0000000000000000
lru: 0000
reuse bit: 0
trace: 0
valid: 0
********
sampler set details
set index: 198
partial tag: 0000000000000000
lru: 0000
reuse bit: 0
trace: 0
valid: 0
********
sampler set details
set index: 1387
partial tag: 0000000000000000
lru: 0000
reuse bit: 0
trace: 0
valid: 0
********
sampler set details
set index: 132
partial tag: 0000000110111110
lru: 0000
reuse bit: 1
trace: 555
valid: 1
********
sampler set details
set index: 1321
partial tag: 0000000000000000
lru: 0000
reuse bit: 0
trace: 0
valid: 0
********
sampler set details
set index: 66
partial tag: 0000000110111110
lru: 0000
reuse bit: 1
trace: 68
valid: 1
********
sampler set details
set index: 1255
partial tag: 0000000000000000
lru: 0000
reuse bit: 0
trace: 0
valid: 0
********
sampler set details
set index: 0
partial tag: 0000000110111110
lru: 0000
reuse bit: 1
trace: 14
valid: 1
********
sampler set details
set index: 1189
partial tag: 0000000000000000
lru: 0000
reuse bit: 0
trace: 0
valid: 0
********
sampler set details
set index: 858
partial tag: 0000000110111110
lru: 0000
reuse bit: 1
trace: 989
valid: 1
********
sampler set details
set index: 924
partial tag: 0000000110111110
lru: 0000
reuse bit: 1
trace: 989
valid: 1
********
sampler set details
set index: 990
partial tag: 0000000000000000
lru: 0000
reuse bit: 0
trace: 0
valid: 0
********
sampler set details
set index: 1057
partial tag: 0000000110111110
lru: 0000
reuse bit: 1
trace: 1066
valid: 1
********
sampler set details
set index: 1123
partial tag: 0000000000000000
lru: 0000
reuse bit: 0
trace: 0
valid: 0
********
sampler set details
set index: 2047
partial tag: 0000000000000000
lru: 0000
reuse bit: 0
trace: 0
valid: 0
********
sampler set details
set index: 1981
partial tag: 0000000110111110
lru: 0000
reuse bit: 1
trace: 607
valid: 1
********
sampler set details
set index: 1915
partial tag: 0000000110111110
lru: 0000
reuse bit: 1
trace: 1888
valid: 1
********
sampler set details
set index: 792
partial tag: 0000000000000000
lru: 0000
reuse bit: 0
trace: 0
valid: 0
********
sampler set details
set index: 726
partial tag: 0000000000000000
lru: 0000
reuse bit: 0
trace: 0
valid: 0
********
sampler set details
set index: 660
partial tag: 0000000000000000
lru: 0000
reuse bit: 0
trace: 0
valid: 0
********
sampler set details
set index: 1849
partial tag: 0000000000000000
lru: 0000
reuse bit: 0
trace: 0
valid: 0
********
sampler set details
set index: 594
partial tag: 0000000000000000
lru: 0000
reuse bit: 0
trace: 0
valid: 0
********
sampler set details
set index: 1783
partial tag: 0000000000000000
lru: 0000
reuse bit: 0
trace: 0
valid: 0
********
sampler set details
set index: 528
partial tag: 0000000000000000
lru: 0000
reuse bit: 0
trace: 0
valid: 0
********
sampler set details
set index: 1717
partial tag: 0000000110111110
lru: 0000
reuse bit: 1
trace: 421
valid: 1
********
sampler set details
set index: 462
partial tag: 0000000000000000
lru: 0000
reuse bit: 0
trace: 0
valid: 0
********
sampler set details
set index: 1651
partial tag: 0000000000000000
lru: 0000
reuse bit: 0
trace: 0
valid: 0
********
sampler set details
set index: 396
partial tag: 0000000000000000
lru: 0000
reuse bit: 0
trace: 0
valid: 0
********
sampler set details
set index: 1585
partial tag: 0000000000000000
lru: 0000
reuse bit: 0
trace: 0
valid: 0
********
sampler set details
set index: 330
partial tag: 0000000000000000
lru: 0000
reuse bit: 0
trace: 0
valid: 0
********
sampler set details
set index: 1519
partial tag: 0000000000000000
lru: 0000
reuse bit: 0
trace: 0
valid: 0
********
sampler set details
set index: 264
partial tag: 0000000000000000
lru: 0000
reuse bit: 0
trace: 0
valid: 0
********
sampler set details
set index: 1453
partial tag: 0000000000000000
lru: 0000
reuse bit: 0
trace: 0
valid: 0
********
sampler set details
set index: 198
partial tag: 0000000000000000
lru: 0000
reuse bit: 0
trace: 0
valid: 0
********
sampler set details
set index: 1387
partial tag: 0000000000000000
lru: 0000
reuse bit: 0
trace: 0
valid: 0
********
sampler set details
set index: 132
partial tag: 0000000110111110
lru: 0000
reuse bit: 1
trace: 555
valid: 1
********
sampler set details
set index: 1321
partial tag: 0000000000000000
lru: 0000
reuse bit: 0
trace: 0
valid: 0
********
sampler set details
set index: 66
partial tag: 0000000110111110
lru: 0000
reuse bit: 1
trace: 68
valid: 1
********
sampler set details
set index: 1255
partial tag: 0000000000000000
lru: 0000
reuse bit: 0
trace: 0
valid: 0
********
sampler set details
set index: 0
partial tag: 0000000110111110
lru: 0000
reuse bit: 1
trace: 14
valid: 1
********
sampler set details
set index: 1189
partial tag: 0000000000000000
lru: 0000
reuse bit: 0
trace: 0
valid: 0
********
sampler set details
set index: 858
partial tag: 0000000110111110
lru: 0000
reuse bit: 1
trace: 832
valid: 1
********
sampler set details
set index: 924
partial tag: 0000000110111110
lru: 0000
reuse bit: 1
trace: 989
valid: 1
********
sampler set details
set index: 990
partial tag: 0000000000000000
lru: 0000
reuse bit: 0
trace: 0
valid: 0
********
sampler set details
set index: 1057
partial tag: 0000000110111110
lru: 0000
reuse bit: 1
trace: 1066
valid: 1
********
sampler set details
set index: 1123
partial tag: 0000000000000000
lru: 0000
reuse bit: 0
trace: 0
valid: 0
********
sampler set details
set index: 2047
partial tag: 0000000000000000
lru: 0000
reuse bit: 0
trace: 0
valid: 0
********
sampler set details
set index: 1981
partial tag: 0000000110111110
lru: 0000
reuse bit: 1
trace: 607
valid: 1
********
sampler set details
set index: 1915
partial tag: 0000000110111110
lru: 0000
reuse bit: 1
trace: 1888
valid: 1
********
sampler set details
set index: 792
partial tag: 0000000000000000
lru: 0000
reuse bit: 0
trace: 0
valid: 0
********
sampler set details
set index: 726
partial tag: 0000000000000000
lru: 0000
reuse bit: 0
trace: 0
valid: 0
********
sampler set details
set index: 660
partial tag: 0000000000000000
lru: 0000
reuse bit: 0
trace: 0
valid: 0
********
sampler set details
set index: 1849
partial tag: 0000000000000000
lru: 0000
reuse bit: 0
trace: 0
valid: 0
********
sampler set details
set index: 594
partial tag: 0000000000000000
lru: 0000
reuse bit: 0
trace: 0
valid: 0
********
sampler set details
set index: 1783
partial tag: 0000000000000000
lru: 0000
reuse bit: 0
trace: 0
valid: 0
********
sampler set details
set index: 528
partial tag: 0000000000000000
lru: 0000
reuse bit: 0
trace: 0
valid: 0
********
sampler set details
set index: 1717
partial tag: 0000000110111110
lru: 0000
reuse bit: 1
trace: 421
valid: 1
********
sampler set details
set index: 462
partial tag: 0000000000000000
lru: 0000
reuse bit: 0
trace: 0
valid: 0
********
sampler set details
set index: 1651
partial tag: 0000000000000000
lru: 0000
reuse bit: 0
trace: 0
valid: 0
********
sampler set details
set index: 396
partial tag: 0000000110111110
lru: 0000
reuse bit: 1
trace: 384
valid: 1
********
sampler set details
set index: 1585
partial tag: 0000000000000000
lru: 0000
reuse bit: 0
trace: 0
valid: 0
********
sampler set details
set index: 330
partial tag: 0000000000000000
lru: 0000
reuse bit: 0
trace: 0
valid: 0
********
sampler set details
set index: 1519
partial tag: 0000000000000000
lru: 0000
reuse bit: 0
trace: 0
valid: 0
********
sampler set details
set index: 264
partial tag: 0000000000000000
lru: 0000
reuse bit: 0
trace: 0
valid: 0
********
sampler set details
set index: 1453
partial tag: 0000000000000000
lru: 0000
reuse bit: 0
trace: 0
valid: 0
********
sampler set details
set index: 198
partial tag: 0000000000000000
lru: 0000
reuse bit: 0
trace: 0
valid: 0
********
sampler set details
set index: 1387
partial tag: 0000000000000000
lru: 0000
reuse bit: 0
trace: 0
valid: 0
********
sampler set details
set index: 132
partial tag: 0000000110111110
lru: 0000
reuse bit: 1
trace: 555
valid: 1
********
sampler set details
set index: 1321
partial tag: 0000000000000000
lru: 0000
reuse bit: 0
trace: 0
valid: 0
********
sampler set details
set index: 66
partial tag: 0000000110111110
lru: 0000
reuse bit: 1
trace: 68
valid: 1
********
sampler set details
set index: 1255
partial tag: 0000000000000000
lru: 0000
reuse bit: 0
trace: 0
valid: 0
********
sampler set details
set index: 0
partial tag: 0000000110111110
lru: 0000
reuse bit: 1
trace: 14
valid: 1
********
sampler set details
set index: 1189
partial tag: 0000000000000000
lru: 0000
reuse bit: 0
trace: 0
valid: 0
********
sampler set details
set index: 858
partial tag: 0000000110111110
lru: 0000
reuse bit: 1
trace: 832
valid: 1
********
sampler set details
set index: 924
partial tag: 0000000110111110
lru: 0000
reuse bit: 1
trace: 989
valid: 1
********
sampler set details
set index: 990
partial tag: 0000000000000000
lru: 0000
reuse bit: 0
trace: 0
valid: 0
********
sampler set details
set index: 1057
partial tag: 0000000110111110
lru: 0000
reuse bit: 1
trace: 1066
valid: 1
********
sampler set details
set index: 1123
partial tag: 0000000000000000
lru: 0000
reuse bit: 0
trace: 0
valid: 0
********
sampler set details
set index: 2047
partial tag: 0000000000000000
lru: 0000
reuse bit: 0
trace: 0
valid: 0
********
sampler set details
set index: 1981
partial tag: 0000000110111110
lru: 0000
reuse bit: 1
trace: 607
valid: 1
********
sampler set details
set index: 1915
partial tag: 0000000110111110
lru: 0000
reuse bit: 1
trace: 1888
valid: 1
********
sampler set details
set index: 792
partial tag: 0000000000000000
lru: 0000
reuse bit: 0
trace: 0
valid: 0
********
sampler set details
set index: 726
partial tag: 0000000000000000
lru: 0000
reuse bit: 0
trace: 0
valid: 0
********
sampler set details
set index: 660
partial tag: 0000000000000000
lru: 0000
reuse bit: 0
trace: 0
valid: 0
********
sampler set details
set index: 1849
partial tag: 0000000000000000
lru: 0000
reuse bit: 0
trace: 0
valid: 0
********
sampler set details
set index: 594
partial tag: 0000000000000000
lru: 0000
reuse bit: 0
trace: 0
valid: 0
********
sampler set details
set index: 1783
partial tag: 0000000000000000
lru: 0000
reuse bit: 0
trace: 0
valid: 0
********
sampler set details
set index: 528
partial tag: 0000000000000000
lru: 0000
reuse bit: 0
trace: 0
valid: 0
********
sampler set details
set index: 1717
partial tag: 0000000110111110
lru: 0000
reuse bit: 1
trace: 421
valid: 1
********
sampler set details
set index: 462
partial tag: 0000000000000000
lru: 0000
reuse bit: 0
trace: 0
valid: 0
********
sampler set details
set index: 1651
partial tag: 0000000000000000
lru: 0000
reuse bit: 0
trace: 0
valid: 0
********
sampler set details
set index: 396
partial tag: 0000000110111110
lru: 0000
reuse bit: 1
trace: 384
valid: 1
********
sampler set details
set index: 1585
partial tag: 0000000000000000
lru: 0000
reuse bit: 0
trace: 0
valid: 0
********
sampler set details
set index: 330
partial tag: 0000000000000000
lru: 0000
reuse bit: 0
trace: 0
valid: 0
********
sampler set details
set index: 1519
partial tag: 0000000000000000
lru: 0000
reuse bit: 0
trace: 0
valid: 0
********
sampler set details
set index: 264
partial tag: 0000000000000000
lru: 0000
reuse bit: 0
trace: 0
valid: 0
********
sampler set details
set index: 1453
partial tag: 0000000000000000
lru: 0000
reuse bit: 0
trace: 0
valid: 0
********
sampler set details
set index: 198
partial tag: 0000000000000000
lru: 0000
reuse bit: 0
trace: 0
valid: 0
********
sampler set details
set index: 1387
partial tag: 0000000000000000
lru: 0000
reuse bit: 0
trace: 0
valid: 0
********
sampler set details
set index: 132
partial tag: 0000000110111110
lru: 0000
reuse bit: 1
trace: 555
valid: 1
********
sampler set details
set index: 1321
partial tag: 0000000000000000
lru: 0000
reuse bit: 0
trace: 0
valid: 0
********
sampler set details
set index: 66
partial tag: 0000000110111110
lru: 0000
reuse bit: 1
trace: 68
valid: 1
********
sampler set details
set index: 1255
partial tag: 0000000000000000
lru: 0000
reuse bit: 0
trace: 0
valid: 0
********
sampler set details
set index: 0
partial tag: 0000000110111110
lru: 0000
reuse bit: 1
trace: 744
valid: 1
********
sampler set details
set index: 1189
partial tag: 0000000000000000
lru: 0000
reuse bit: 0
trace: 0
valid: 0
********
sampler set details
set index: 858
partial tag: 0000000110111110
lru: 0000
reuse bit: 1
trace: 832
valid: 1
********
sampler set details
set index: 924
partial tag: 0000000110111110
lru: 0000
reuse bit: 1
trace: 989
valid: 1
********
sampler set details
set index: 990
partial tag: 0000000000000000
lru: 0000
reuse bit: 0
trace: 0
valid: 0
********
sampler set details
set index: 1057
partial tag: 0000000110111110
lru: 0000
reuse bit: 1
trace: 1066
valid: 1
********
sampler set details
set index: 1123
partial tag: 0000000000000000
lru: 0000
reuse bit: 0
trace: 0
valid: 0
********
sampler set details
set index: 2047
partial tag: 0000000000000000
lru: 0000
reuse bit: 0
trace: 0
valid: 0
********
sampler set details
set index: 1981
partial tag: 0000000110111110
lru: 0000
reuse bit: 1
trace: 607
valid: 1
********
sampler set details
set index: 1915
partial tag: 0000000110111110
lru: 0000
reuse bit: 1
trace: 1888
valid: 1
********
sampler set details
set index: 792
partial tag: 0000000000000000
lru: 0000
reuse bit: 0
trace: 0
valid: 0
********
sampler set details
set index: 726
partial tag: 0000000000000000
lru: 0000
reuse bit: 0
trace: 0
valid: 0
********
sampler set details
set index: 660
partial tag: 0000000000000000
lru: 0000
reuse bit: 0
trace: 0
valid: 0
********
sampler set details
set index: 1849
partial tag: 0000000000000000
lru: 0000
reuse bit: 0
trace: 0
valid: 0
********
sampler set details
set index: 594
partial tag: 0000000000000000
lru: 0000
reuse bit: 0
trace: 0
valid: 0
********
sampler set details
set index: 1783
partial tag: 0000000000000000
lru: 0000
reuse bit: 0
trace: 0
valid: 0
********
sampler set details
set index: 528
partial tag: 0000000000000000
lru: 0000
reuse bit: 0
trace: 0
valid: 0
********
sampler set details
set index: 1717
partial tag: 0000000110111110
lru: 0000
reuse bit: 1
trace: 421
valid: 1
********
sampler set details
set index: 462
partial tag: 0000000000000000
lru: 0000
reuse bit: 0
trace: 0
valid: 0
********
sampler set details
set index: 1651
partial tag: 0000000000000000
lru: 0000
reuse bit: 0
trace: 0
valid: 0
********
sampler set details
set index: 396
partial tag: 0000000110111110
lru: 0000
reuse bit: 1
trace: 384
valid: 1
********
sampler set details
set index: 1585
partial tag: 0000000000000000
lru: 0000
reuse bit: 0
trace: 0
valid: 0
********
sampler set details
set index: 330
partial tag: 0000000000000000
lru: 0000
reuse bit: 0
trace: 0
valid: 0
********
sampler set details
set index: 1519
partial tag: 0000000000000000
lru: 0000
reuse bit: 0
trace: 0
valid: 0
********
sampler set details
set index: 264
partial tag: 0000000000000000
lru: 0000
reuse bit: 0
trace: 0
valid: 0
********
sampler set details
set index: 1453
partial tag: 0000000000000000
lru: 0000
reuse bit: 0
trace: 0
valid: 0
********
sampler set details
set index: 198
partial tag: 0000000110111110
lru: 0000
reuse bit: 1
trace: 192
valid: 1
********
sampler set details
set index: 1387
partial tag: 0000000000000000
lru: 0000
reuse bit: 0
trace: 0
valid: 0
********
sampler set details
set index: 132
partial tag: 0000000110111110
lru: 0000
reuse bit: 1
trace: 555
valid: 1
********
sampler set details
set index: 1321
partial tag: 0000000000000000
lru: 0000
reuse bit: 0
trace: 0
valid: 0
********
sampler set details
set index: 66
partial tag: 0000000110111110
lru: 0000
reuse bit: 1
trace: 68
valid: 1
********
sampler set details
set index: 1255
partial tag: 0000000000000000
lru: 0000
reuse bit: 0
trace: 0
valid: 0
********
sampler set details
set index: 0
partial tag: 0000000110111110
lru: 0000
reuse bit: 1
trace: 744
valid: 1
********
sampler set details
set index: 1189
partial tag: 0000000000000000
lru: 0000
reuse bit: 0
trace: 0
valid: 0
********
sampler set details
set index: 858
partial tag: 0000000110111110
lru: 0000
reuse bit: 1
trace: 832
valid: 1
********
sampler set details
set index: 924
partial tag: 0000000110111110
lru: 0000
reuse bit: 1
trace: 989
valid: 1
********
sampler set details
set index: 990
partial tag: 0000000000000000
lru: 0000
reuse bit: 0
trace: 0
valid: 0
********
sampler set details
set index: 1057
partial tag: 0000000110111110
lru: 0000
reuse bit: 1
trace: 1066
valid: 1
********
sampler set details
set index: 1123
partial tag: 0000000000000000
lru: 0000
reuse bit: 0
trace: 0
valid: 0
********
sampler set details
set index: 2047
partial tag: 0000000000000000
lru: 0000
reuse bit: 0
trace: 0
valid: 0
********
sampler set details
set index: 1981
partial tag: 0000000110111110
lru: 0000
reuse bit: 1
trace: 607
valid: 1
********
sampler set details
set index: 1915
partial tag: 0000000110111110
lru: 0000
reuse bit: 1
trace: 1888
valid: 1
********
sampler set details
set index: 792
partial tag: 0000000000000000
lru: 0000
reuse bit: 0
trace: 0
valid: 0
********
sampler set details
set index: 726
partial tag: 0000000000000000
lru: 0000
reuse bit: 0
trace: 0
valid: 0
********
sampler set details
set index: 660
partial tag: 0000000000000000
lru: 0000
reuse bit: 0
trace: 0
valid: 0
********
sampler set details
set index: 1849
partial tag: 0000000000000000
lru: 0000
reuse bit: 0
trace: 0
valid: 0
********
sampler set details
set index: 594
partial tag: 0000000000000000
lru: 0000
reuse bit: 0
trace: 0
valid: 0
********
sampler set details
set index: 1783
partial tag: 0000000000000000
lru: 0000
reuse bit: 0
trace: 0
valid: 0
********
sampler set details
set index: 528
partial tag: 0000000000000000
lru: 0000
reuse bit: 0
trace: 0
valid: 0
********
sampler set details
set index: 1717
partial tag: 0000000110111110
lru: 0000
reuse bit: 1
trace: 421
valid: 1
********
sampler set details
set index: 462
partial tag: 0000000000000000
lru: 0000
reuse bit: 0
trace: 0
valid: 0
********
sampler set details
set index: 1651
partial tag: 0000000000000000
lru: 0000
reuse bit: 0
trace: 0
valid: 0
********
sampler set details
set index: 396
partial tag: 0000000110111110
lru: 0000
reuse bit: 1
trace: 384
valid: 1
********
sampler set details
set index: 1585
partial tag: 0000000000000000
lru: 0000
reuse bit: 0
trace: 0
valid: 0
********
sampler set details
set index: 330
partial tag: 0000000000000000
lru: 0000
reuse bit: 0
trace: 0
valid: 0
********
sampler set details
set index: 1519
partial tag: 0000000000000000
lru: 0000
reuse bit: 0
trace: 0
valid: 0
********
sampler set details
set index: 264
partial tag: 0000000000000000
lru: 0000
reuse bit: 0
trace: 0
valid: 0
********
sampler set details
set index: 1453
partial tag: 0000000000000000
lru: 0000
reuse bit: 0
trace: 0
valid: 0
********
sampler set details
set index: 198
partial tag: 0000000110111110
lru: 0000
reuse bit: 1
trace: 192
valid: 1
********
sampler set details
set index: 1387
partial tag: 0000000000000000
lru: 0000
reuse bit: 0
trace: 0
valid: 0
********
sampler set details
set index: 132
partial tag: 0000000110111110
lru: 0000
reuse bit: 1
trace: 555
valid: 1
********
sampler set details
set index: 1321
partial tag: 0000000000000000
lru: 0000
reuse bit: 0
trace: 0
valid: 0
********
sampler set details
set index: 66
partial tag: 0000000110111110
lru: 0000
reuse bit: 1
trace: 68
valid: 1
********
sampler set details
set index: 1255
partial tag: 0000000000000000
lru: 0000
reuse bit: 0
trace: 0
valid: 0
********
sampler set details
set index: 0
partial tag: 0000000110111110
lru: 0000
reuse bit: 1
trace: 744
valid: 1
********
sampler set details
set index: 1189
partial tag: 0000000000000000
lru: 0000
reuse bit: 0
trace: 0
valid: 0
********
sampler set details
set index: 858
partial tag: 0000000110111110
lru: 0000
reuse bit: 1
trace: 832
valid: 1
********
sampler set details
set index: 924
partial tag: 0000000110111110
lru: 0000
reuse bit: 1
trace: 989
valid: 1
********
sampler set details
set index: 990
partial tag: 0000000000000000
lru: 0000
reuse bit: 0
trace: 0
valid: 0
********
sampler set details
set index: 1057
partial tag: 0000000110111110
lru: 0000
reuse bit: 1
trace: 1066
valid: 1
********
sampler set details
set index: 1123
partial tag: 0000000110111110
lru: 0000
reuse bit: 1
trace: 1120
valid: 1
********
sampler set details
set index: 2047
partial tag: 0000000000000000
lru: 0000
reuse bit: 0
trace: 0
valid: 0
********
sampler set details
set index: 1981
partial tag: 0000000110111110
lru: 0000
reuse bit: 1
trace: 607
valid: 1
********
sampler set details
set index: 1915
partial tag: 0000000110111110
lru: 0000
reuse bit: 1
trace: 1888
valid: 1
********
sampler set details
set index: 792
partial tag: 0000000000000000
lru: 0000
reuse bit: 0
trace: 0
valid: 0
********
sampler set details
set index: 726
partial tag: 0000000000000000
lru: 0000
reuse bit: 0
trace: 0
valid: 0
********
sampler set details
set index: 660
partial tag: 0000000110111110
lru: 0000
reuse bit: 1
trace: 2009
valid: 1
********
sampler set details
set index: 1849
partial tag: 0000000000000000
lru: 0000
reuse bit: 0
trace: 0
valid: 0
********
sampler set details
set index: 594
partial tag: 0000000000000000
lru: 0000
reuse bit: 0
trace: 0
valid: 0
********
sampler set details
set index: 1783
partial tag: 0000000000000000
lru: 0000
reuse bit: 0
trace: 0
valid: 0
********
sampler set details
set index: 528
partial tag: 0000000000000000
lru: 0000
reuse bit: 0
trace: 0
valid: 0
********
sampler set details
set index: 1717
partial tag: 0000000110111110
lru: 0000
reuse bit: 1
trace: 421
valid: 1
********
sampler set details
set index: 462
partial tag: 0000000000000000
lru: 0000
reuse bit: 0
trace: 0
valid: 0
********
sampler set details
set index: 1651
partial tag: 0000000000000000
lru: 0000
reuse bit: 0
trace: 0
valid: 0
********
sampler set details
set index: 396
partial tag: 0000000110111110
lru: 0000
reuse bit: 1
trace: 384
valid: 1
********
sampler set details
set index: 1585
partial tag: 0000000000000000
lru: 0000
reuse bit: 0
trace: 0
valid: 0
********
sampler set details
set index: 330
partial tag: 0000000000000000
lru: 0000
reuse bit: 0
trace: 0
valid: 0
********
sampler set details
set index: 1519
partial tag: 0000000000000000
lru: 0000
reuse bit: 0
trace: 0
valid: 0
********
sampler set details
set index: 264
partial tag: 0000000000000000
lru: 0000
reuse bit: 0
trace: 0
valid: 0
********
sampler set details
set index: 1453
partial tag: 0000000000000000
lru: 0000
reuse bit: 0
trace: 0
valid: 0
********
sampler set details
set index: 198
partial tag: 0000000110111110
lru: 0000
reuse bit: 1
trace: 192
valid: 1
********
sampler set details
set index: 1387
partial tag: 0000000000000000
lru: 0000
reuse bit: 0
trace: 0
valid: 0
********
sampler set details
set index: 132
partial tag: 0000000110111110
lru: 0000
reuse bit: 1
trace: 555
valid: 1
********
sampler set details
set index: 1321
partial tag: 0000000000000000
lru: 0000
reuse bit: 0
trace: 0
valid: 0
********
sampler set details
set index: 66
partial tag: 0000000110111110
lru: 0000
reuse bit: 1
trace: 68
valid: 1
********
sampler set details
set index: 1255
partial tag: 0000000000000000
lru: 0000
reuse bit: 0
trace: 0
valid: 0
********
sampler set details
set index: 0
partial tag: 0000000110111110
lru: 0000
reuse bit: 1
trace: 744
valid: 1
********
sampler set details
set index: 1189
partial tag: 0000000000000000
lru: 0000
reuse bit: 0
trace: 0
valid: 0
********
sampler set details
set index: 858
partial tag: 0000000110111110
lru: 0000
reuse bit: 1
trace: 832
valid: 1
********
sampler set details
set index: 924
partial tag: 0000000110111110
lru: 0000
reuse bit: 1
trace: 989
valid: 1
********
sampler set details
set index: 990
partial tag: 0000000000000000
lru: 0000
reuse bit: 0
trace: 0
valid: 0
********
sampler set details
set index: 1057
partial tag: 0000000110111110
lru: 0000
reuse bit: 1
trace: 1066
valid: 1
********
sampler set details
set index: 1123
partial tag: 0000000110111110
lru: 0000
reuse bit: 1
trace: 1120
valid: 1
********
sampler set details
set index: 2047
partial tag: 0000000000000000
lru: 0000
reuse bit: 0
trace: 0
valid: 0
********
sampler set details
set index: 1981
partial tag: 0000000110111110
lru: 0000
reuse bit: 1
trace: 607
valid: 1
********
sampler set details
set index: 1915
partial tag: 0000000110111110
lru: 0000
reuse bit: 1
trace: 1888
valid: 1
********
sampler set details
set index: 792
partial tag: 0000000000000000
lru: 0000
reuse bit: 0
trace: 0
valid: 0
********
sampler set details
set index: 726
partial tag: 0000000000000000
lru: 0000
reuse bit: 0
trace: 0
valid: 0
********
sampler set details
set index: 660
partial tag: 0000000110111110
lru: 0000
reuse bit: 1
trace: 2009
valid: 1
********
sampler set details
set index: 1849
partial tag: 0000000000000000
lru: 0000
reuse bit: 0
trace: 0
valid: 0
********
sampler set details
set index: 594
partial tag: 0000000000000000
lru: 0000
reuse bit: 0
trace: 0
valid: 0
********
sampler set details
set index: 1783
partial tag: 0000000000000000
lru: 0000
reuse bit: 0
trace: 0
valid: 0
********
sampler set details
set index: 528
partial tag: 0000000000000000
lru: 0000
reuse bit: 0
trace: 0
valid: 0
********
sampler set details
set index: 1717
partial tag: 0000000110111110
lru: 0000
reuse bit: 1
trace: 421
valid: 1
********
sampler set details
set index: 462
partial tag: 0000000000000000
lru: 0000
reuse bit: 0
trace: 0
valid: 0
********
sampler set details
set index: 1651
partial tag: 0000000000000000
lru: 0000
reuse bit: 0
trace: 0
valid: 0
********
sampler set details
set index: 396
partial tag: 0000000110111110
lru: 0000
reuse bit: 1
trace: 384
valid: 1
********
sampler set details
set index: 1585
partial tag: 0000000000000000
lru: 0000
reuse bit: 0
trace: 0
valid: 0
********
sampler set details
set index: 330
partial tag: 0000000000000000
lru: 0000
reuse bit: 0
trace: 0
valid: 0
********
sampler set details
set index: 1519
partial tag: 0000000000000000
lru: 0000
reuse bit: 0
trace: 0
valid: 0
********
sampler set details
set index: 264
partial tag: 0000000000000000
lru: 0000
reuse bit: 0
trace: 0
valid: 0
********
sampler set details
set index: 1453
partial tag: 0000000000000000
lru: 0000
reuse bit: 0
trace: 0
valid: 0
********
sampler set details
set index: 198
partial tag: 0000000110111110
lru: 0000
reuse bit: 1
trace: 192
valid: 1
********
sampler set details
set index: 1387
partial tag: 0000000110111110
lru: 0000
reuse bit: 1
trace: 1377
valid: 1
********
sampler set details
set index: 132
partial tag: 0000000110111110
lru: 0000
reuse bit: 1
trace: 555
valid: 1
********
sampler set details
set index: 1321
partial tag: 0000000000000000
lru: 0000
reuse bit: 0
trace: 0
valid: 0
********
sampler set details
set index: 66
partial tag: 0000000110111110
lru: 0000
reuse bit: 1
trace: 68
valid: 1
********
sampler set details
set index: 1255
partial tag: 0000000000000000
lru: 0000
reuse bit: 0
trace: 0
valid: 0
********
sampler set details
set index: 0
partial tag: 0000000110111110
lru: 0000
reuse bit: 1
trace: 744
valid: 1
********
sampler set details
set index: 1189
partial tag: 0000000000000000
lru: 0000
reuse bit: 0
trace: 0
valid: 0
********
sampler set details
set index: 858
partial tag: 0000000110111110
lru: 0000
reuse bit: 1
trace: 832
valid: 1
********
sampler set details
set index: 924
partial tag: 0000000110111110
lru: 0000
reuse bit: 1
trace: 989
valid: 1
********
sampler set details
set index: 990
partial tag: 0000000000000000
lru: 0000
reuse bit: 0
trace: 0
valid: 0
********
sampler set details
set index: 1057
partial tag: 0000000110111110
lru: 0000
reuse bit: 1
trace: 1066
valid: 1
********
sampler set details
set index: 1123
partial tag: 0000000110111110
lru: 0000
reuse bit: 1
trace: 1120
valid: 1
********
sampler set details
set index: 2047
partial tag: 0000000000000000
lru: 0000
reuse bit: 0
trace: 0
valid: 0
********
sampler set details
set index: 1981
partial tag: 0000000110111110
lru: 0000
reuse bit: 1
trace: 607
valid: 1
********
sampler set details
set index: 1915
partial tag: 0000000110111110
lru: 0000
reuse bit: 1
trace: 1888
valid: 1
********
sampler set details
set index: 792
partial tag: 0000000000000000
lru: 0000
reuse bit: 0
trace: 0
valid: 0
********
sampler set details
set index: 726
partial tag: 0000000000000000
lru: 0000
reuse bit: 0
trace: 0
valid: 0
********
sampler set details
set index: 660
partial tag: 0000000110111110
lru: 0000
reuse bit: 1
trace: 2009
valid: 1
********
sampler set details
set index: 1849
partial tag: 0000000000000000
lru: 0000
reuse bit: 0
trace: 0
valid: 0
********
sampler set details
set index: 594
partial tag: 0000000000000000
lru: 0000
reuse bit: 0
trace: 0
valid: 0
********
sampler set details
set index: 1783
partial tag: 0000000000000000
lru: 0000
reuse bit: 0
trace: 0
valid: 0
********
sampler set details
set index: 528
partial tag: 0000000000000000
lru: 0000
reuse bit: 0
trace: 0
valid: 0
********
sampler set details
set index: 1717
partial tag: 0000000110111110
lru: 0000
reuse bit: 1
trace: 421
valid: 1
********
sampler set details
set index: 462
partial tag: 0000000000000000
lru: 0000
reuse bit: 0
trace: 0
valid: 0
********
sampler set details
set index: 1651
partial tag: 0000000110111110
lru: 0000
reuse bit: 1
trace: 421
valid: 1
********
sampler set details
set index: 396
partial tag: 0000000110111110
lru: 0000
reuse bit: 1
trace: 384
valid: 1
********
sampler set details
set index: 1585
partial tag: 0000000000000000
lru: 0000
reuse bit: 0
trace: 0
valid: 0
********
sampler set details
set index: 330
partial tag: 0000000000000000
lru: 0000
reuse bit: 0
trace: 0
valid: 0
********
sampler set details
set index: 1519
partial tag: 0000000000000000
lru: 0000
reuse bit: 0
trace: 0
valid: 0
********
sampler set details
set index: 264
partial tag: 0000000000000000
lru: 0000
reuse bit: 0
trace: 0
valid: 0
********
sampler set details
set index: 1453
partial tag: 0000000000000000
lru: 0000
reuse bit: 0
trace: 0
valid: 0
********
sampler set details
set index: 198
partial tag: 0000000110111110
lru: 0000
reuse bit: 1
trace: 192
valid: 1
********
sampler set details
set index: 1387
partial tag: 0000000110111110
lru: 0000
reuse bit: 1
trace: 1377
valid: 1
********
sampler set details
set index: 132
partial tag: 0000000110111110
lru: 0000
reuse bit: 1
trace: 555
valid: 1
********
sampler set details
set index: 1321
partial tag: 0000000000000000
lru: 0000
reuse bit: 0
trace: 0
valid: 0
********
sampler set details
set index: 66
partial tag: 0000000110111110
lru: 0000
reuse bit: 1
trace: 68
valid: 1
********
sampler set details
set index: 1255
partial tag: 0000000000000000
lru: 0000
reuse bit: 0
trace: 0
valid: 0
********
sampler set details
set index: 0
partial tag: 0000000110111110
lru: 0000
reuse bit: 1
trace: 744
valid: 1
********
sampler set details
set index: 1189
partial tag: 0000000000000000
lru: 0000
reuse bit: 0
trace: 0
valid: 0
********
sampler set details
set index: 858
partial tag: 0000000110111110
lru: 0000
reuse bit: 1
trace: 832
valid: 1
********
sampler set details
set index: 924
partial tag: 0000000110111110
lru: 0000
reuse bit: 1
trace: 989
valid: 1
********
sampler set details
set index: 990
partial tag: 0000000000000000
lru: 0000
reuse bit: 0
trace: 0
valid: 0
********
sampler set details
set index: 1057
partial tag: 0000000110111110
lru: 0000
reuse bit: 1
trace: 1066
valid: 1
********
sampler set details
set index: 1123
partial tag: 0000000110111110
lru: 0000
reuse bit: 1
trace: 1120
valid: 1
********
sampler set details
set index: 2047
partial tag: 0000000000000000
lru: 0000
reuse bit: 0
trace: 0
valid: 0
********
sampler set details
set index: 1981
partial tag: 0000000110111110
lru: 0000
reuse bit: 1
trace: 607
valid: 1
********
sampler set details
set index: 1915
partial tag: 0000000110111110
lru: 0000
reuse bit: 1
trace: 1888
valid: 1
********
sampler set details
set index: 792
partial tag: 0000000000000000
lru: 0000
reuse bit: 0
trace: 0
valid: 0
********
sampler set details
set index: 726
partial tag: 0000000000000000
lru: 0000
reuse bit: 0
trace: 0
valid: 0
********
sampler set details
set index: 660
partial tag: 0000000110111110
lru: 0000
reuse bit: 1
trace: 2009
valid: 1
********
sampler set details
set index: 1849
partial tag: 0000000000000000
lru: 0000
reuse bit: 0
trace: 0
valid: 0
********
sampler set details
set index: 594
partial tag: 0000000000000000
lru: 0000
reuse bit: 0
trace: 0
valid: 0
********
sampler set details
set index: 1783
partial tag: 0000000110111110
lru: 0000
reuse bit: 1
trace: 1475
valid: 1
********
sampler set details
set index: 528
partial tag: 0000000000000000
lru: 0000
reuse bit: 0
trace: 0
valid: 0
********
sampler set details
set index: 1717
partial tag: 0000000110111110
lru: 0000
reuse bit: 1
trace: 421
valid: 1
********
sampler set details
set index: 462
partial tag: 0000000000000000
lru: 0000
reuse bit: 0
trace: 0
valid: 0
********
sampler set details
set index: 1651
partial tag: 0000000110111110
lru: 0000
reuse bit: 1
trace: 421
valid: 1
********
sampler set details
set index: 396
partial tag: 0000000110111110
lru: 0000
reuse bit: 1
trace: 384
valid: 1
********
sampler set details
set index: 1585
partial tag: 0000000000000000
lru: 0000
reuse bit: 0
trace: 0
valid: 0
********
sampler set details
set index: 330
partial tag: 0000000000000000
lru: 0000
reuse bit: 0
trace: 0
valid: 0
********
sampler set details
set index: 1519
partial tag: 0000000000000000
lru: 0000
reuse bit: 0
trace: 0
valid: 0
********
sampler set details
set index: 264
partial tag: 0000000000000000
lru: 0000
reuse bit: 0
trace: 0
valid: 0
********
sampler set details
set index: 1453
partial tag: 0000000000000000
lru: 0000
reuse bit: 0
trace: 0
valid: 0
********
sampler set details
set index: 198
partial tag: 0000000110111110
lru: 0000
reuse bit: 1
trace: 192
valid: 1
********
sampler set details
set index: 1387
partial tag: 0000000110111110
lru: 0000
reuse bit: 1
trace: 1377
valid: 1
********
sampler set details
set index: 132
partial tag: 0000000110111110
lru: 0000
reuse bit: 1
trace: 555
valid: 1
********
sampler set details
set index: 1321
partial tag: 0000000000000000
lru: 0000
reuse bit: 0
trace: 0
valid: 0
********
sampler set details
set index: 66
partial tag: 0000000110111110
lru: 0000
reuse bit: 1
trace: 68
valid: 1
********
sampler set details
set index: 1255
partial tag: 0000000000000000
lru: 0000
reuse bit: 0
trace: 0
valid: 0
********
sampler set details
set index: 0
partial tag: 0000000110111110
lru: 0000
reuse bit: 1
trace: 744
valid: 1
********
sampler set details
set index: 1189
partial tag: 0000000000000000
lru: 0000
reuse bit: 0
trace: 0
valid: 0
********
sampler set details
set index: 858
partial tag: 0000000110111110
lru: 0000
reuse bit: 1
trace: 832
valid: 1
********
sampler set details
set index: 924
partial tag: 0000000110111110
lru: 0000
reuse bit: 1
trace: 989
valid: 1
********
sampler set details
set index: 990
partial tag: 0000000000000000
lru: 0000
reuse bit: 0
trace: 0
valid: 0
********
sampler set details
set index: 1057
partial tag: 0000000110111110
lru: 0000
reuse bit: 1
trace: 1066
valid: 1
********
sampler set details
set index: 1123
partial tag: 0000000110111110
lru: 0000
reuse bit: 1
trace: 1120
valid: 1
********
sampler set details
set index: 2047
partial tag: 0000000000000000
lru: 0000
reuse bit: 0
trace: 0
valid: 0
********
sampler set details
set index: 1981
partial tag: 0000000110111110
lru: 0000
reuse bit: 1
trace: 607
valid: 1
********
sampler set details
set index: 1915
partial tag: 0000000110111110
lru: 0000
reuse bit: 1
trace: 1888
valid: 1
********
sampler set details
set index: 792
partial tag: 0000000000000000
lru: 0000
reuse bit: 0
trace: 0
valid: 0
********
sampler set details
set index: 726
partial tag: 0000000000000000
lru: 0000
reuse bit: 0
trace: 0
valid: 0
********
sampler set details
set index: 660
partial tag: 0000000110111110
lru: 0000
reuse bit: 1
trace: 2009
valid: 1
********
sampler set details
set index: 1849
partial tag: 0000000000000000
lru: 0000
reuse bit: 0
trace: 0
valid: 0
********
sampler set details
set index: 594
partial tag: 0000000000000000
lru: 0000
reuse bit: 0
trace: 0
valid: 0
********
sampler set details
set index: 1783
partial tag: 0000000110111110
lru: 0000
reuse bit: 1
trace: 1475
valid: 1
********
sampler set details
set index: 528
partial tag: 0000000000000000
lru: 0000
reuse bit: 0
trace: 0
valid: 0
********
sampler set details
set index: 1717
partial tag: 0000000110111110
lru: 0000
reuse bit: 1
trace: 421
valid: 1
********
sampler set details
set index: 462
partial tag: 0000000000000000
lru: 0000
reuse bit: 0
trace: 0
valid: 0
********
sampler set details
set index: 1651
partial tag: 0000000110111110
lru: 0000
reuse bit: 1
trace: 421
valid: 1
********
sampler set details
set index: 396
partial tag: 0000000110111110
lru: 0000
reuse bit: 1
trace: 384
valid: 1
********
sampler set details
set index: 1585
partial tag: 0000000000000000
lru: 0000
reuse bit: 0
trace: 0
valid: 0
********
sampler set details
set index: 330
partial tag: 0000000000000000
lru: 0000
reuse bit: 0
trace: 0
valid: 0
********
sampler set details
set index: 1519
partial tag: 0000000000000000
lru: 0000
reuse bit: 0
trace: 0
valid: 0
********
sampler set details
set index: 264
partial tag: 0000000000000000
lru: 0000
reuse bit: 0
trace: 0
valid: 0
********
sampler set details
set index: 1453
partial tag: 0000000000000000
lru: 0000
reuse bit: 0
trace: 0
valid: 0
********
sampler set details
set index: 198
partial tag: 0000000110111110
lru: 0000
reuse bit: 1
trace: 192
valid: 1
********
sampler set details
set index: 1387
partial tag: 0000000110111110
lru: 0000
reuse bit: 1
trace: 1603
valid: 1
********
sampler set details
set index: 132
partial tag: 0000000110111110
lru: 0000
reuse bit: 1
trace: 555
valid: 1
********
sampler set details
set index: 1321
partial tag: 0000000000000000
lru: 0000
reuse bit: 0
trace: 0
valid: 0
********
sampler set details
set index: 66
partial tag: 0000000110111110
lru: 0000
reuse bit: 1
trace: 68
valid: 1
********
sampler set details
set index: 1255
partial tag: 0000000000000000
lru: 0000
reuse bit: 0
trace: 0
valid: 0
********
sampler set details
set index: 0
partial tag: 0000000110111110
lru: 0000
reuse bit: 1
trace: 744
valid: 1
********
sampler set details
set index: 1189
partial tag: 0000000000000000
lru: 0000
reuse bit: 0
trace: 0
valid: 0
********
sampler set details
set index: 858
partial tag: 0000000110111110
lru: 0000
reuse bit: 1
trace: 832
valid: 1
********
sampler set details
set index: 924
partial tag: 0000000110111110
lru: 0000
reuse bit: 1
trace: 989
valid: 1
********
sampler set details
set index: 990
partial tag: 0000000000000000
lru: 0000
reuse bit: 0
trace: 0
valid: 0
********
sampler set details
set index: 1057
partial tag: 0000000110111110
lru: 0000
reuse bit: 1
trace: 1066
valid: 1
********
sampler set details
set index: 1123
partial tag: 0000000110111110
lru: 0000
reuse bit: 1
trace: 1120
valid: 1
********
sampler set details
set index: 2047
partial tag: 0000000000000000
lru: 0000
reuse bit: 0
trace: 0
valid: 0
********
sampler set details
set index: 1981
partial tag: 0000000110111110
lru: 0000
reuse bit: 1
trace: 607
valid: 1
********
sampler set details
set index: 1915
partial tag: 0000000110111110
lru: 0000
reuse bit: 1
trace: 1888
valid: 1
********
sampler set details
set index: 792
partial tag: 0000000000000000
lru: 0000
reuse bit: 0
trace: 0
valid: 0
********
sampler set details
set index: 726
partial tag: 0000000000000000
lru: 0000
reuse bit: 0
trace: 0
valid: 0
********
sampler set details
set index: 660
partial tag: 0000000110111110
lru: 0000
reuse bit: 1
trace: 2009
valid: 1
********
sampler set details
set index: 1849
partial tag: 0000000000000000
lru: 0000
reuse bit: 0
trace: 0
valid: 0
********
sampler set details
set index: 594
partial tag: 0000000000000000
lru: 0000
reuse bit: 0
trace: 0
valid: 0
********
sampler set details
set index: 1783
partial tag: 0000000110111110
lru: 0000
reuse bit: 1
trace: 1475
valid: 1
********
sampler set details
set index: 528
partial tag: 0000000000000000
lru: 0000
reuse bit: 0
trace: 0
valid: 0
********
sampler set details
set index: 1717
partial tag: 0000000110111110
lru: 0000
reuse bit: 1
trace: 421
valid: 1
********
sampler set details
set index: 462
partial tag: 0000000000000000
lru: 0000
reuse bit: 0
trace: 0
valid: 0
********
sampler set details
set index: 1651
partial tag: 0000000110111110
lru: 0000
reuse bit: 1
trace: 421
valid: 1
********
sampler set details
set index: 396
partial tag: 0000000110111110
lru: 0000
reuse bit: 1
trace: 384
valid: 1
********
sampler set details
set index: 1585
partial tag: 0000000000000000
lru: 0000
reuse bit: 0
trace: 0
valid: 0
********
sampler set details
set index: 330
partial tag: 0000000000000000
lru: 0000
reuse bit: 0
trace: 0
valid: 0
********
sampler set details
set index: 1519
partial tag: 0000000000000000
lru: 0000
reuse bit: 0
trace: 0
valid: 0
********
sampler set details
set index: 264
partial tag: 0000000000000000
lru: 0000
reuse bit: 0
trace: 0
valid: 0
********
sampler set details
set index: 1453
partial tag: 0000000000000000
lru: 0000
reuse bit: 0
trace: 0
valid: 0
********
sampler set details
set index: 198
partial tag: 0000000110111110
lru: 0000
reuse bit: 1
trace: 195
valid: 1
********
sampler set details
set index: 1387
partial tag: 0000000110111110
lru: 0000
reuse bit: 1
trace: 1603
valid: 1
********
sampler set details
set index: 132
partial tag: 0000000110111110
lru: 0000
reuse bit: 1
trace: 555
valid: 1
********
sampler set details
set index: 1321
partial tag: 0000000000000000
lru: 0000
reuse bit: 0
trace: 0
valid: 0
********
sampler set details
set index: 66
partial tag: 0000000110111110
lru: 0000
reuse bit: 1
trace: 68
valid: 1
********
sampler set details
set index: 1255
partial tag: 0000000000000000
lru: 0000
reuse bit: 0
trace: 0
valid: 0
********
sampler set details
set index: 0
partial tag: 0000000110111110
lru: 0000
reuse bit: 1
trace: 744
valid: 1
********
sampler set details
set index: 1189
partial tag: 0000000000000000
lru: 0000
reuse bit: 0
trace: 0
valid: 0
********
sampler set details
set index: 858
partial tag: 0000000110111110
lru: 0000
reuse bit: 1
trace: 832
valid: 1
********
sampler set details
set index: 924
partial tag: 0000000110111110
lru: 0000
reuse bit: 1
trace: 989
valid: 1
********
sampler set details
set index: 990
partial tag: 0000000000000000
lru: 0000
reuse bit: 0
trace: 0
valid: 0
********
sampler set details
set index: 1057
partial tag: 0000000110111110
lru: 0000
reuse bit: 1
trace: 1066
valid: 1
********
sampler set details
set index: 1123
partial tag: 0000000110111110
lru: 0000
reuse bit: 1
trace: 1120
valid: 1
********
sampler set details
set index: 2047
partial tag: 0000000000000000
lru: 0000
reuse bit: 0
trace: 0
valid: 0
********
sampler set details
set index: 1981
partial tag: 0000000110111110
lru: 0000
reuse bit: 1
trace: 607
valid: 1
********
sampler set details
set index: 1915
partial tag: 0000000110111110
lru: 0000
reuse bit: 1
trace: 1888
valid: 1
********
sampler set details
set index: 792
partial tag: 0000000110111110
lru: 0000
reuse bit: 1
trace: 1071
valid: 1
********
sampler set details
set index: 726
partial tag: 0000000000000000
lru: 0000
reuse bit: 0
trace: 0
valid: 0
********
sampler set details
set index: 660
partial tag: 0000000110111110
lru: 0000
reuse bit: 1
trace: 2009
valid: 1
********
sampler set details
set index: 1849
partial tag: 0000000000000000
lru: 0000
reuse bit: 0
trace: 0
valid: 0
********
sampler set details
set index: 594
partial tag: 0000000000000000
lru: 0000
reuse bit: 0
trace: 0
valid: 0
********
sampler set details
set index: 1783
partial tag: 0000000110111110
lru: 0000
reuse bit: 1
trace: 1475
valid: 1
********
sampler set details
set index: 528
partial tag: 0000000000000000
lru: 0000
reuse bit: 0
trace: 0
valid: 0
********
sampler set details
set index: 1717
partial tag: 0000000110111110
lru: 0000
reuse bit: 1
trace: 421
valid: 1
********
sampler set details
set index: 462
partial tag: 0000000000000000
lru: 0000
reuse bit: 0
trace: 0
valid: 0
********
sampler set details
set index: 1651
partial tag: 0000000110111110
lru: 0000
reuse bit: 1
trace: 421
valid: 1
********
sampler set details
set index: 396
partial tag: 0000000110111110
lru: 0000
reuse bit: 1
trace: 384
valid: 1
********
sampler set details
set index: 1585
partial tag: 0000000000000000
lru: 0000
reuse bit: 0
[...]
********
sampler set details
set index: 1255
partial tag: 0000001101001000
lru: 0000
reuse bit: 1
trace: 1109
valid: 1
********
sampler set details
set index: 0
partial tag: 0000000110111110
lru: 0000
reuse bit: 1
trace: 691
valid: 1
********
sampler set details
set index: 1189
partial tag: 0000001101001000
lru: 0000
reuse bit: 1
trace: 1109
valid: 1
********
sampler set details
set index: 858
partial tag: 0000000110111110
lru: 0000
reuse bit: 1
trace: 589
valid: 1
********
sampler set details
set index: 924
partial tag: 0000000110111110
lru: 0000
reuse bit: 1
trace: 1109
valid: 1
********
sampler set details
set index: 990
partial tag: 0000001101001000
lru: 0000
reuse bit: 1
trace: 1817
valid: 1
********
sampler set details
set index: 1057
partial tag: 0000000110111110
lru: 0000
reuse bit: 1
trace: 1466
valid: 1
********
sampler set details
set index: 1123
partial tag: 0000000110111110
lru: 0000
reuse bit: 1
trace: 1520
valid: 1
********
sampler set details
set index: 2047
partial tag: 0000001101001000
lru: 0000
reuse bit: 1
trace: 1253
valid: 1
********
sampler set details
set index: 1981
partial tag: 0000000110111110
lru: 0011
reuse bit: 1
trace: 496
valid: 1
********
sampler set details
set index: 1915
partial tag: 0000000110111110
lru: 0001
reuse bit: 1
trace: 1768
valid: 1
********
sampler set details
set index: 792
partial tag: 0000000110111110
lru: 0010
reuse bit: 1
trace: 1924
valid: 1
********
sampler set details
set index: 726
partial tag: 0000001101001000
lru: 0001
reuse bit: 1
trace: 1397
valid: 1
********
sampler set details
set index: 660
partial tag: 0000000110111110
lru: 0010
reuse bit: 1
trace: 1888
valid: 1
********
sampler set details
set index: 1849
partial tag: 0000000110111110
lru: 0000
reuse bit: 1
trace: 1715
valid: 1
********
sampler set details
set index: 594
partial tag: 0000001101001000
lru: 0000
reuse bit: 1
trace: 1721
valid: 1
********
sampler set details
set index: 1783
partial tag: 0000000110111110
lru: 0010
reuse bit: 1
trace: 477
valid: 1
********
sampler set details
set index: 528
partial tag: 0000001101001000
lru: 0000
reuse bit: 1
trace: 1721
valid: 1
********
sampler set details
set index: 1717
partial tag: 0000000110111110
lru: 0011
reuse bit: 1
trace: 1397
valid: 1
********
sampler set details
set index: 462
partial tag: 0000001101001000
lru: 0000
reuse bit: 1
trace: 1721
valid: 1
********
sampler set details
set index: 1651
partial tag: 0000000110111110
lru: 0001
reuse bit: 1
trace: 2040
valid: 1
********
sampler set details
set index: 396
partial tag: 0000000110111110
lru: 0000
reuse bit: 1
trace: 16
valid: 1
********
sampler set details
set index: 1585
partial tag: 0000001101001000
lru: 0000
reuse bit: 1
trace: 1109
valid: 1
********
sampler set details
set index: 330
partial tag: 0000001101001000
lru: 0000
reuse bit: 1
trace: 1253
valid: 1
********
sampler set details
set index: 1519
partial tag: 0000001101001000
lru: 0000
reuse bit: 1
trace: 1109
valid: 1
********
sampler set details
set index: 264
partial tag: 0000000111010011
lru: 0010
reuse bit: 1
trace: 145
valid: 1
********
sampler set details
set index: 1453
partial tag: 0000001101001000
lru: 0000
reuse bit: 1
trace: 1109
valid: 1
********
sampler set details
set index: 198
partial tag: 0000000110111110
lru: 0000
reuse bit: 1
trace: 336
valid: 1
********
sampler set details
set index: 1387
partial tag: 0000000110111110
lru: 0000
reuse bit: 1
trace: 2003
valid: 1
********
sampler set details
set index: 132
partial tag: 0000000110111110
lru: 0011
reuse bit: 1
trace: 555
valid: 1
********
sampler set details
set index: 1321
partial tag: 0000001101001000
lru: 0000
reuse bit: 1
trace: 1645
valid: 1
********
sampler set details
set index: 66
partial tag: 0000000110111110
lru: 0001
reuse bit: 1
trace: 468
valid: 1
********
sampler set details
set index: 1255
partial tag: 0000001101001000
lru: 0000
reuse bit: 1
trace: 1109
valid: 1
********
sampler set details
set index: 0
partial tag: 0000000110111110
lru: 0001
reuse bit: 1
trace: 691
valid: 1
********
sampler set details
set index: 1189
partial tag: 0000001101001000
lru: 0000
reuse bit: 1
trace: 1109
valid: 1
********
sampler set details
set index: 858
partial tag: 0000000110111110
lru: 0000
reuse bit: 1
trace: 589
valid: 1
********
sampler set details
set index: 924
partial tag: 0000000110111110
lru: 0000
reuse bit: 1
trace: 1109
valid: 1
********
sampler set details
set index: 990
partial tag: 0000001101001000
lru: 0000
reuse bit: 1
trace: 1817
valid: 1
********
sampler set details
set index: 1057
partial tag: 0000000110111110
lru: 0000
reuse bit: 1
trace: 1466
valid: 1
********
sampler set details
set index: 1123
partial tag: 0000000110111110
lru: 0000
reuse bit: 1
trace: 1520
valid: 1
********
sampler set details
set index: 2047
partial tag: 0000001101001000
lru: 0000
reuse bit: 1
trace: 1253
valid: 1
********
sampler set details
set index: 1981
partial tag: 0000000110111110
lru: 0011
reuse bit: 1
trace: 496
valid: 1
********
sampler set details
set index: 1915
partial tag: 0000000110111110
lru: 0001
reuse bit: 1
trace: 1768
valid: 1
********
sampler set details
set index: 792
partial tag: 0000000110111110
lru: 0010
reuse bit: 1
trace: 1924
valid: 1
********
sampler set details
set index: 726
partial tag: 0000001101001000
lru: 0001
reuse bit: 1
trace: 1397
valid: 1
********
sampler set details
set index: 660
partial tag: 0000000110111110
lru: 0010
reuse bit: 1
trace: 1888
valid: 1
********
sampler set details
set index: 1849
partial tag: 0000000110111110
lru: 0000
reuse bit: 1
trace: 1715
valid: 1
********
sampler set details
set index: 594
partial tag: 0000001101001000
lru: 0000
reuse bit: 1
trace: 1721
valid: 1
********
sampler set details
set index: 1783
partial tag: 0000000110111110
lru: 0010
reuse bit: 1
trace: 477
valid: 1
********
sampler set details
set index: 528
partial tag: 0000001101001000
lru: 0000
reuse bit: 1
trace: 1721
valid: 1
********
sampler set details
set index: 1717
partial tag: 0000000110111110
lru: 0011
reuse bit: 1
trace: 1397
valid: 1
********
sampler set details
set index: 462
partial tag: 0000001101001000
lru: 0000
reuse bit: 1
trace: 1721
valid: 1
********
sampler set details
set index: 1651
partial tag: 0000000110111110
lru: 0001
reuse bit: 1
trace: 2040
valid: 1
********
sampler set details
set index: 396
partial tag: 0000000110111110
lru: 0000
reuse bit: 1
trace: 16
valid: 1
********
sampler set details
set index: 1585
partial tag: 0000001101001000
lru: 0000
reuse bit: 1
trace: 1109
valid: 1
********
sampler set details
set index: 330
partial tag: 0000001101001000
lru: 0000
reuse bit: 1
trace: 1253
valid: 1
********
sampler set details
set index: 1519
partial tag: 0000001101001000
lru: 0000
reuse bit: 1
trace: 1109
valid: 1
********
sampler set details
set index: 264
partial tag: 0000000111010011
lru: 0010
reuse bit: 1
trace: 145
valid: 1
********
sampler set details
set index: 1453
partial tag: 0000001101001000
lru: 0000
reuse bit: 1
trace: 1109
valid: 1
********
sampler set details
set index: 198
partial tag: 0000000110111110
lru: 0000
reuse bit: 1
trace: 336
valid: 1
********
sampler set details
set index: 1387
partial tag: 0000000110111110
lru: 0000
reuse bit: 1
trace: 2003
valid: 1
********
sampler set details
set index: 132
partial tag: 0000000110111110
lru: 0011
reuse bit: 1
trace: 555
valid: 1
********
sampler set details
set index: 1321
partial tag: 0000001101001000
lru: 0000
reuse bit: 1
trace: 1645
valid: 1
********
sampler set details
set index: 66
partial tag: 0000000110111110
lru: 0001
reuse bit: 1
trace: 468
valid: 1
********
sampler set details
set index: 1255
partial tag: 0000001101001000
lru: 0000
reuse bit: 1
trace: 1109
valid: 1
********
sampler set details
set index: 0
partial tag: 0000000110111110
lru: 0001
reuse bit: 1
trace: 691
valid: 1
********
sampler set details
set index: 1189
partial tag: 0000001101001000
lru: 0000
reuse bit: 1
trace: 1109
valid: 1
********
sampler set details
set index: 858
partial tag: 0000000110111110
lru: 0000
reuse bit: 1
trace: 589
valid: 1
********
sampler set details
set index: 924
partial tag: 0000000110111110
lru: 0000
reuse bit: 1
trace: 530
valid: 1
********
sampler set details
set index: 990
partial tag: 0000001101001000
lru: 0000
reuse bit: 1
trace: 1817
valid: 1
********
sampler set details
set index: 1057
partial tag: 0000000110111110
lru: 0000
reuse bit: 1
trace: 1466
valid: 1
********
sampler set details
set index: 1123
partial tag: 0000000110111110
lru: 0000
reuse bit: 1
trace: 1520
valid: 1
********
sampler set details
set index: 2047
partial tag: 0000001101001000
lru: 0000
reuse bit: 1
trace: 1253
valid: 1
********
sampler set details
set index: 1981
partial tag: 0000000110111110
lru: 0011
reuse bit: 1
trace: 496
valid: 1
********
sampler set details
set index: 1915
partial tag: 0000000110111110
lru: 0001
reuse bit: 1
trace: 1768
valid: 1
********
sampler set details
set index: 792
partial tag: 0000000110111110
lru: 0010
reuse bit: 1
trace: 1924
valid: 1
********
sampler set details
set index: 726
partial tag: 0000001101001000
lru: 0001
reuse bit: 1
trace: 1397
valid: 1
********
sampler set details
set index: 660
partial tag: 0000000110111110
lru: 0010
reuse bit: 1
trace: 1888
valid: 1
********
sampler set details
set index: 1849
partial tag: 0000000110111110
lru: 0000
reuse bit: 1
trace: 1715
valid: 1
********
sampler set details
set index: 594
partial tag: 0000001101001000
lru: 0000
reuse bit: 1
trace: 1721
valid: 1
********
sampler set details
set index: 1783
partial tag: 0000000110111110
lru: 0010
reuse bit: 1
trace: 477
valid: 1
********
sampler set details
set index: 528
partial tag: 0000001101001000
lru: 0000
reuse bit: 1
trace: 1721
valid: 1
********
sampler set details
set index: 1717
partial tag: 0000000110111110
lru: 0011
reuse bit: 1
trace: 1397
valid: 1
********
sampler set details
set index: 462
partial tag: 0000001101001000
lru: 0000
reuse bit: 1
trace: 1721
valid: 1
********
sampler set details
set index: 1651
partial tag: 0000000110111110
lru: 0001
reuse bit: 1
trace: 2040
valid: 1
********
sampler set details
set index: 396
partial tag: 0000000110111110
lru: 0000
reuse bit: 1
trace: 16
valid: 1
********
sampler set details
set index: 1585
partial tag: 0000001101001000
lru: 0000
reuse bit: 1
trace: 1109
valid: 1
********
sampler set details
set index: 330
partial tag: 0000001101001000
lru: 0000
reuse bit: 1
trace: 1253
valid: 1
********
sampler set details
set index: 1519
partial tag: 0000001101001000
lru: 0000
reuse bit: 1
trace: 1109
valid: 1
********
sampler set details
set index: 264
partial tag: 0000000111010011
lru: 0010
reuse bit: 1
trace: 145
valid: 1
********
sampler set details
set index: 1453
partial tag: 0000001101001000
lru: 0000
reuse bit: 1
trace: 1109
valid: 1
********
sampler set details
set index: 198
partial tag: 0000000110111110
lru: 0000
reuse bit: 1
trace: 336
valid: 1
********
sampler set details
set index: 1387
partial tag: 0000000110111110
lru: 0000
reuse bit: 1
trace: 2003
valid: 1
********
sampler set details
set index: 132
partial tag: 0000000110111110
lru: 0011
reuse bit: 1
trace: 555
valid: 1
********
sampler set details
set index: 1321
partial tag: 0000001101001000
lru: 0000
reuse bit: 1
trace: 1645
valid: 1
********
sampler set details
set index: 66
partial tag: 0000000110111110
lru: 0001
reuse bit: 1
trace: 468
valid: 1
********
sampler set details
set index: 1255
partial tag: 0000001101001000
lru: 0000
reuse bit: 1
trace: 1109
valid: 1
********
sampler set details
set index: 0
partial tag: 0000000110111110
lru: 0001
reuse bit: 1
trace: 691
valid: 1
********
sampler set details
set index: 1189
partial tag: 0000001101001000
lru: 0000
reuse bit: 1
trace: 1109
valid: 1
********
sampler set details
set index: 858
partial tag: 0000000110111110
lru: 0000
reuse bit: 1
trace: 589
valid: 1
********
sampler set details
set index: 924
partial tag: 0000000110111110
lru: 0000
reuse bit: 1
trace: 530
valid: 1
********
sampler set details
set index: 990
partial tag: 0000001101001000
lru: 0000
reuse bit: 1
trace: 687
valid: 1
********
sampler set details
set index: 1057
partial tag: 0000000110111110
lru: 0000
reuse bit: 1
trace: 1466
valid: 1
********
sampler set details
set index: 1123
partial tag: 0000000110111110
lru: 0000
reuse bit: 1
trace: 1520
valid: 1
********
sampler set details
set index: 2047
partial tag: 0000001101001000
lru: 0000
reuse bit: 1
trace: 1253
valid: 1
********
sampler set details
set index: 1981
partial tag: 0000000110111110
lru: 0011
reuse bit: 1
trace: 496
valid: 1
********
sampler set details
set index: 1915
partial tag: 0000000110111110
lru: 0001
reuse bit: 1
trace: 1768
valid: 1
********
sampler set details
set index: 792
partial tag: 0000000110111110
lru: 0010
reuse bit: 1
trace: 1924
valid: 1
********
sampler set details
set index: 726
partial tag: 0000001101001000
lru: 0001
reuse bit: 1
trace: 1397
valid: 1
********
sampler set details
set index: 660
partial tag: 0000000110111110
lru: 0010
reuse bit: 1
trace: 1888
valid: 1
********
sampler set details
set index: 1849
partial tag: 0000000110111110
lru: 0000
reuse bit: 1
trace: 1715
valid: 1
********
sampler set details
set index: 594
partial tag: 0000001101001000
lru: 0000
reuse bit: 1
trace: 1721
valid: 1
********
sampler set details
set index: 1783
partial tag: 0000000110111110
lru: 0010
reuse bit: 1
trace: 477
valid: 1
********
sampler set details
set index: 528
partial tag: 0000001101001000
lru: 0000
reuse bit: 1
trace: 916
valid: 1
********
sampler set details
set index: 1717
partial tag: 0000000110111110
lru: 0011
reuse bit: 1
trace: 1397
valid: 1
********
sampler set details
set index: 462
partial tag: 0000001101001000
lru: 0000
reuse bit: 1
trace: 1721
valid: 1
********
sampler set details
set index: 1651
partial tag: 0000000110111110
lru: 0001
reuse bit: 1
trace: 2040
valid: 1
********
sampler set details
set index: 396
partial tag: 0000000110111110
lru: 0000
reuse bit: 1
trace: 16
valid: 1
********
sampler set details
set index: 1585
partial tag: 0000001101001000
lru: 0000
reuse bit: 1
trace: 1109
valid: 1
********
sampler set details
set index: 330
partial tag: 0000001101001000
lru: 0000
reuse bit: 1
trace: 1253
valid: 1
********
sampler set details
set index: 1519
partial tag: 0000001101001000
lru: 0000
reuse bit: 1
trace: 1109
valid: 1
********
sampler set details
set index: 264
partial tag: 0000000111010011
lru: 0010
reuse bit: 1
trace: 145
valid: 1
********
sampler set details
set index: 1453
partial tag: 0000001101001000
lru: 0000
reuse bit: 1
trace: 1109
valid: 1
********
sampler set details
set index: 198
partial tag: 0000000110111110
lru: 0000
reuse bit: 1
trace: 336
valid: 1
********
sampler set details
set index: 1387
partial tag: 0000000110111110
lru: 0000
reuse bit: 1
trace: 2003
valid: 1
********
sampler set details
set index: 132
partial tag: 0000000110111110
lru: 0011
reuse bit: 1
trace: 555
valid: 1
********
sampler set details
set index: 1321
partial tag: 0000001101001000
lru: 0000
reuse bit: 1
trace: 1645
valid: 1
********
sampler set details
set index: 66
partial tag: 0000000110111110
lru: 0001
reuse bit: 1
trace: 468
valid: 1
********
sampler set details
set index: 1255
partial tag: 0000001101001000
lru: 0000
reuse bit: 1
trace: 1109
valid: 1
********
sampler set details
set index: 0
partial tag: 0000000110111110
lru: 0001
reuse bit: 1
trace: 691
valid: 1
********
sampler set details
set index: 1189
partial tag: 0000001101001000
lru: 0000
reuse bit: 1
trace: 1109
valid: 1
********
sampler set details
set index: 858
partial tag: 0000000110111110
lru: 0000
reuse bit: 1
trace: 589
valid: 1
********
sampler set details
set index: 924
partial tag: 0000000110111110
lru: 0000
reuse bit: 1
trace: 530
valid: 1
********
sampler set details
set index: 990
partial tag: 0000001101001000
lru: 0000
reuse bit: 1
trace: 687
valid: 1
********
sampler set details
set index: 1057
partial tag: 0000000110111110
lru: 0000
reuse bit: 1
trace: 1466
valid: 1
********
sampler set details
set index: 1123
partial tag: 0000000110111110
lru: 0000
reuse bit: 1
trace: 1520
valid: 1
********
Finished CPU 0 instructions: 10000002 cycles: 21230207 cumulative IPC: 0.471027 (Simulation time: 0 hr 0 min 14 sec) 

CPU 0 Branch Prediction Accuracy: 89.4709% MPKI: 19.8119

ChampSim completed all CPUs

Region of Interest Statistics

CPU 0 cumulative IPC: 0.471027 instructions: 10000002 cycles: 21230207
L1D TOTAL     ACCESS:    2657357  HIT:    2579778  MISS:      77579
L1D LOAD      ACCESS:    1753804  HIT:    1698241  MISS:      55563
L1D RFO       ACCESS:     903553  HIT:     881537  MISS:      22016
L1D PREFETCH  ACCESS:          0  HIT:          0  MISS:          0
L1D WRITEBACK ACCESS:          0  HIT:          0  MISS:          0
L1D PREFETCH  REQUESTED:          0  ISSUED:          0  FILLED:          0  USEFUL:          0  USELESS:          0
L1I TOTAL     ACCESS:    2301037  HIT:    2271305  MISS:      29732
L1I LOAD      ACCESS:    2301037  HIT:    2271305  MISS:      29732
L1I RFO       ACCESS:          0  HIT:          0  MISS:          0
L1I PREFETCH  ACCESS:          0  HIT:          0  MISS:          0
L1I WRITEBACK ACCESS:          0  HIT:          0  MISS:          0
L1I PREFETCH  REQUESTED:          0  ISSUED:          0  FILLED:          0  USEFUL:          0  USELESS:          0
L2C TOTAL     ACCESS:     138749  HIT:      87999  MISS:      50750
L2C LOAD      ACCESS:      85294  HIT:      43486  MISS:      41808
L2C RFO       ACCESS:      22016  HIT:      13102  MISS:       8914
L2C PREFETCH  ACCESS:          0  HIT:          0  MISS:          0
L2C WRITEBACK ACCESS:      31439  HIT:      31411  MISS:         28
L2C PREFETCH  REQUESTED:          0  ISSUED:          0  FILLED:          0  USEFUL:          0  USELESS:          0
LLC TOTAL     ACCESS:      65650  HIT:      57909  MISS:       7741
LLC LOAD      ACCESS:      41808  HIT:      36349  MISS:       5459
LLC RFO       ACCESS:       8914  HIT:       6632  MISS:       2282
LLC PREFETCH  ACCESS:          0  HIT:          0  MISS:          0
LLC WRITEBACK ACCESS:      14928  HIT:      14928  MISS:          0
LLC PREFETCH  REQUESTED:          0  ISSUED:          0  FILLED:          0  USEFUL:          0  USELESS:          0
DTLB TOTAL     ACCESS:    2529495  HIT:    2514509  MISS:      14986
DTLB LOAD      ACCESS:    1745446  HIT:    1731709  MISS:      13737
DTLB RFO       ACCESS:     784049  HIT:     782800  MISS:       1249
DTLB PREFETCH  ACCESS:          0  HIT:          0  MISS:          0
DTLB WRITEBACK ACCESS:          0  HIT:          0  MISS:          0
DTLB PREFETCH  REQUESTED:          0  ISSUED:          0  FILLED:          0  USEFUL:          0  USELESS:          0
ITLB TOTAL     ACCESS:    1713266  HIT:    1712935  MISS:        331
ITLB LOAD      ACCESS:    1713266  HIT:    1712935  MISS:        331
ITLB RFO       ACCESS:          0  HIT:          0  MISS:          0
ITLB PREFETCH  ACCESS:          0  HIT:          0  MISS:          0
ITLB WRITEBACK ACCESS:          0  HIT:          0  MISS:          0
ITLB PREFETCH  REQUESTED:          0  ISSUED:          0  FILLED:          0  USEFUL:          0  USELESS:          0
STLB TOTAL     ACCESS:      15317  HIT:      14677  MISS:        640
STLB LOAD      ACCESS:      14068  HIT:      13466  MISS:        602
STLB RFO       ACCESS:       1249  HIT:       1211  MISS:         38
STLB PREFETCH  ACCESS:          0  HIT:          0  MISS:          0
STLB WRITEBACK ACCESS:          0  HIT:          0  MISS:          0
STLB PREFETCH  REQUESTED:          0  ISSUED:          0  FILLED:          0  USEFUL:          0  USELESS:          0
Major fault: 0 Minor fault: 1030

Invalid block evictions: 13433
DBP Decisions: 0
Mockingjay Decisions: 0
Writeback MKJ Decisions: 0

DB Predictions in [0,9]: 
0 57372
2 4
3 248
9 37


DRAM Statistics
 CHANNEL 0
 RQ ROW_BUFFER_HIT:       5297  ROW_BUFFER_MISS:       2444
 DBUS_CONGESTED:       1734
 WQ ROW_BUFFER_HIT:          0  ROW_BUFFER_MISS:          0  FULL:          0

 AVG_CONGESTED_CYCLE: 13
