
*** ChampSim Multicore Out-of-Order Simulator ***

Warmup Instructions: 1000000
Simulation Instructions: 10000000
Number of CPUs: 1
LLC sets: 2048
LLC ways: 16
Off-chip DRAM Size: 4096 MB Channels: 1 Width: 64-bit Data Rate: 1600 MT/s

CPU 0 runs ./tracefiles/gromacs_1B.trace.xz
CPU 0 Bimodal branch predictor

Warmup complete CPU 0 instructions: 1000003 cycles: 405665 (Simulation time: 0 hr 0 min 1 sec) 

Heartbeat CPU 0 instructions: 10000002 cycles: 10893437 heartbeat IPC: 0.917984 cumulative IPC: 0.858142 (Simulation time: 0 hr 0 min 12 sec) 
Finished CPU 0 instructions: 10000000 cycles: 12299061 cumulative IPC: 0.81307 (Simulation time: 0 hr 0 min 13 sec) 

CPU 0 Branch Prediction Accuracy: 88.3737% MPKI: 10.364

ChampSim completed all CPUs

Region of Interest Statistics

CPU 0 cumulative IPC: 0.81307 instructions: 10000000 cycles: 12299061
L1D TOTAL     ACCESS:    2535148  HIT:    2378629  MISS:     156519
L1D LOAD      ACCESS:    1515215  HIT:    1365236  MISS:     149979
L1D RFO       ACCESS:    1019933  HIT:    1013393  MISS:       6540
L1D PREFETCH  ACCESS:          0  HIT:          0  MISS:          0
L1D WRITEBACK ACCESS:          0  HIT:          0  MISS:          0
L1D PREFETCH  REQUESTED:          0  ISSUED:          0  FILLED:          0  USEFUL:          0  USELESS:          0
L1I TOTAL     ACCESS:    2173590  HIT:    2173405  MISS:        185
L1I LOAD      ACCESS:    2173590  HIT:    2173405  MISS:        185
L1I RFO       ACCESS:          0  HIT:          0  MISS:          0
L1I PREFETCH  ACCESS:          0  HIT:          0  MISS:          0
L1I WRITEBACK ACCESS:          0  HIT:          0  MISS:          0
L1I PREFETCH  REQUESTED:          0  ISSUED:          0  FILLED:          0  USEFUL:          0  USELESS:          0
L2C TOTAL     ACCESS:     183763  HIT:     168242  MISS:      15521
L2C LOAD      ACCESS:     150125  HIT:     136472  MISS:      13653
L2C RFO       ACCESS:       6539  HIT:       4686  MISS:       1853
L2C PREFETCH  ACCESS:          0  HIT:          0  MISS:          0
L2C WRITEBACK ACCESS:      27099  HIT:      27084  MISS:         15
L2C PREFETCH  REQUESTED:          0  ISSUED:          0  FILLED:          0  USEFUL:          0  USELESS:          0
LLC TOTAL     ACCESS:      20998  HIT:      14591  MISS:       6407
LLC LOAD      ACCESS:      13653  HIT:       8190  MISS:       5463
LLC RFO       ACCESS:       1853  HIT:        909  MISS:        944
LLC PREFETCH  ACCESS:          0  HIT:          0  MISS:          0
LLC WRITEBACK ACCESS:       5492  HIT:       5492  MISS:          0
LLC PREFETCH  REQUESTED:          0  ISSUED:          0  FILLED:          0  USEFUL:          0  USELESS:          0
DTLB TOTAL     ACCESS:    2015676  HIT:    1999725  MISS:      15951
DTLB LOAD      ACCESS:    1319568  HIT:    1305648  MISS:      13920
DTLB RFO       ACCESS:     696108  HIT:     694077  MISS:       2031
DTLB PREFETCH  ACCESS:          0  HIT:          0  MISS:          0
DTLB WRITEBACK ACCESS:          0  HIT:          0  MISS:          0
DTLB PREFETCH  REQUESTED:          0  ISSUED:          0  FILLED:          0  USEFUL:          0  USELESS:          0
ITLB TOTAL     ACCESS:    1658288  HIT:    1658276  MISS:         12
ITLB LOAD      ACCESS:    1658288  HIT:    1658276  MISS:         12
ITLB RFO       ACCESS:          0  HIT:          0  MISS:          0
ITLB PREFETCH  ACCESS:          0  HIT:          0  MISS:          0
ITLB WRITEBACK ACCESS:          0  HIT:          0  MISS:          0
ITLB PREFETCH  REQUESTED:          0  ISSUED:          0  FILLED:          0  USEFUL:          0  USELESS:          0
STLB TOTAL     ACCESS:      15963  HIT:      15810  MISS:        153
STLB LOAD      ACCESS:      13932  HIT:      13813  MISS:        119
STLB RFO       ACCESS:       2031  HIT:       1997  MISS:         34
STLB PREFETCH  ACCESS:          0  HIT:          0  MISS:          0
STLB WRITEBACK ACCESS:          0  HIT:          0  MISS:          0
STLB PREFETCH  REQUESTED:          0  ISSUED:          0  FILLED:          0  USEFUL:          0  USELESS:          0
Major fault: 0 Minor fault: 225

Invalid block evictions: 9463
DBP Decisions: 0
Mockingjay Decisions: 0
Writeback MKJ Decisions: 0

DB Predictions in [0,9]: 
0 18848
3 1
9 9


DRAM Statistics
 CHANNEL 0
 RQ ROW_BUFFER_HIT:       4127  ROW_BUFFER_MISS:       2280
 DBUS_CONGESTED:        600
 WQ ROW_BUFFER_HIT:          0  ROW_BUFFER_MISS:          0  FULL:          0

 AVG_CONGESTED_CYCLE: 11
