
*** ChampSim Multicore Out-of-Order Simulator ***

Warmup Instructions: 1000000
Simulation Instructions: 10000000
Number of CPUs: 1
LLC sets: 2048
LLC ways: 16
Off-chip DRAM Size: 4096 MB Channels: 1 Width: 64-bit Data Rate: 1600 MT/s

CPU 0 runs ./tracefiles/gromacs_0B.trace.xz
CPU 0 Bimodal branch predictor
sampler set details
set index: 2047
partial tag: 0000000000000000
lru: 0000
reuse bit: 0
trace: 0
valid: 0
********
sampler set details
set index: 1981
partial tag: 0000000000000000
lru: 0000
reuse bit: 0
trace: 0
valid: 0
********
sampler set details
set index: 1915
partial tag: 0000000000000000
lru: 0000
reuse bit: 0
trace: 0
valid: 0
********
sampler set details
set index: 792
partial tag: 0000000000000000
lru: 0000
reuse bit: 0
trace: 0
valid: 0
********
sampler set details
set index: 726
partial tag: 0000000000000000
lru: 0000
reuse bit: 0
trace: 0
valid: 0
********
sampler set details
set index: 660
partial tag: 0000000000000000
lru: 0000
reuse bit: 0
trace: 0
valid: 0
********
sampler set details
set index: 1849
partial tag: 0000000000000000
lru: 0000
reuse bit: 0
trace: 0
valid: 0
********
sampler set details
set index: 594
partial tag: 0000000000000000
lru: 0000
reuse bit: 0
trace: 0
valid: 0
********
sampler set details
set index: 1783
partial tag: 0000000000000000
lru: 0000
reuse bit: 0
trace: 0
valid: 0
********
sampler set details
set index: 528
partial tag: 0000000000000000
lru: 0000
reuse bit: 0
trace: 0
valid: 0
********
sampler set details
set index: 1717
partial tag: 0000000000000000
lru: 0000
reuse bit: 0
trace: 0
valid: 0
********
sampler set details
set index: 462
partial tag: 0000000000000000
lru: 0000
reuse bit: 0
trace: 0
valid: 0
********
sampler set details
set index: 1651
partial tag: 0000000000000000
lru: 0000
reuse bit: 0
trace: 0
valid: 0
********
sampler set details
set index: 396
partial tag: 0000000000000000
lru: 0000
reuse bit: 0
trace: 0
valid: 0
********
sampler set details
set index: 1585
partial tag: 0000000000000000
lru: 0000
reuse bit: 0
trace: 0
valid: 0
********
sampler set details
set index: 330
partial tag: 0000000000000000
lru: 0000
reuse bit: 0
trace: 0
valid: 0
********
sampler set details
set index: 1519
partial tag: 0000000000000000
lru: 0000
reuse bit: 0
trace: 0
valid: 0
********
sampler set details
set index: 264
partial tag: 0000000000000000
lru: 0000
reuse bit: 0
trace: 0
valid: 0
********
sampler set details
set index: 1453
partial tag: 0000000000000000
lru: 0000
reuse bit: 0
trace: 0
valid: 0
********
sampler set details
set index: 198
partial tag: 0000000000000000
lru: 0000
reuse bit: 0
trace: 0
valid: 0
********
sampler set details
set index: 1387
partial tag: 0000000000000000
lru: 0000
reuse bit: 0
trace: 0
valid: 0
********
sampler set details
set index: 132
partial tag: 0000000000000000
lru: 0000
reuse bit: 0
trace: 0
valid: 0
********
sampler set details
set index: 1321
partial tag: 0000000000000000
lru: 0000
reuse bit: 0
trace: 0
valid: 0
********
sampler set details
set index: 66
partial tag: 0000000000000000
lru: 0000
reuse bit: 0
trace: 0
valid: 0
********
sampler set details
set index: 1255
partial tag: 0000000000000000
lru: 0000
reuse bit: 0
trace: 0
valid: 0
********
sampler set details
set index: 0
partial tag: 0000000000000000
lru: 0000
reuse bit: 0
trace: 0
valid: 0
********
sampler set details
set index: 1189
partial tag: 0000000000000000
lru: 0000
reuse bit: 0
trace: 0
valid: 0
********
sampler set details
set index: 858
partial tag: 0000000000000000
lru: 0000
reuse bit: 0
trace: 0
valid: 0
********
sampler set details
set index: 924
partial tag: 0000000000000000
lru: 0000
reuse bit: 0
trace: 0
valid: 0
********
sampler set details
set index: 990
partial tag: 0000000000000000
lru: 0000
reuse bit: 0
trace: 0
valid: 0
********
sampler set details
set index: 1057
partial tag: 0000000000000000
lru: 0000
reuse bit: 0
trace: 0
valid: 0
********
sampler set details
set index: 1123
partial tag: 0000000000000000
lru: 0000
reuse bit: 0
trace: 0
valid: 0
********
sampler set details
set index: 2047
partial tag: 0000000000000000
lru: 0000
reuse bit: 0
trace: 0
valid: 0
********
sampler set details
set index: 1981
partial tag: 0000000000000000
lru: 0000
reuse bit: 0
trace: 0
valid: 0
********
sampler set details
set index: 1915
partial tag: 0000000000000000
lru: 0000
reuse bit: 0
trace: 0
valid: 0
********
sampler set details
set index: 792
partial tag: 0000000000000000
lru: 0000
reuse bit: 0
trace: 0
valid: 0
********
sampler set details
set index: 726
partial tag: 0000000000000000
lru: 0000
reuse bit: 0
trace: 0
valid: 0
********
sampler set details
set index: 660
partial tag: 0000000000000000
lru: 0000
reuse bit: 0
trace: 0
valid: 0
********
sampler set details
set index: 1849
partial tag: 0000000000000000
lru: 0000
reuse bit: 0
trace: 0
valid: 0
********
sampler set details
set index: 594
partial tag: 0000000110111110
lru: 0000
reuse bit: 1
trace: 577
valid: 1
********
sampler set details
set index: 1783
partial tag: 0000000000000000
lru: 0000
reuse bit: 0
trace: 0
valid: 0
********
sampler set details
set index: 528
partial tag: 0000000000000000
lru: 0000
reuse bit: 0
trace: 0
valid: 0
********
sampler set details
set index: 1717
partial tag: 0000000000000000
lru: 0000
reuse bit: 0
trace: 0
valid: 0
********
sampler set details
set index: 462
partial tag: 0000000000000000
lru: 0000
reuse bit: 0
trace: 0
valid: 0
********
sampler set details
set index: 1651
partial tag: 0000000000000000
lru: 0000
reuse bit: 0
trace: 0
valid: 0
********
sampler set details
set index: 396
partial tag: 0000000000000000
lru: 0000
reuse bit: 0
trace: 0
valid: 0
********
sampler set details
set index: 1585
partial tag: 0000000000000000
lru: 0000
reuse bit: 0
trace: 0
valid: 0
********
sampler set details
set index: 330
partial tag: 0000000000000000
lru: 0000
reuse bit: 0
trace: 0
valid: 0
********
sampler set details
set index: 1519
partial tag: 0000000000000000
lru: 0000
reuse bit: 0
trace: 0
valid: 0
********
sampler set details
set index: 264
partial tag: 0000000000000000
lru: 0000
reuse bit: 0
trace: 0
valid: 0
********
sampler set details
set index: 1453
partial tag: 0000000000000000
lru: 0000
reuse bit: 0
trace: 0
valid: 0
********
sampler set details
set index: 198
partial tag: 0000000000000000
lru: 0000
reuse bit: 0
trace: 0
valid: 0
********
sampler set details
set index: 1387
partial tag: 0000000000000000
lru: 0000
reuse bit: 0
trace: 0
valid: 0
********
sampler set details
set index: 132
partial tag: 0000000000000000
lru: 0000
reuse bit: 0
trace: 0
valid: 0
********
sampler set details
set index: 1321
partial tag: 0000000000000000
lru: 0000
reuse bit: 0
trace: 0
valid: 0
********
sampler set details
set index: 66
partial tag: 0000000000000000
lru: 0000
reuse bit: 0
trace: 0
valid: 0
********
sampler set details
set index: 1255
partial tag: 0000000000000000
lru: 0000
reuse bit: 0
trace: 0
valid: 0
********
sampler set details
set index: 0
partial tag: 0000000000000000
lru: 0000
reuse bit: 0
trace: 0
valid: 0
********
sampler set details
set index: 1189
partial tag: 0000000000000000
lru: 0000
reuse bit: 0
trace: 0
valid: 0
********
sampler set details
set index: 858
partial tag: 0000000000000000
lru: 0000
reuse bit: 0
trace: 0
valid: 0
********
sampler set details
set index: 924
partial tag: 0000000000000000
lru: 0000
reuse bit: 0
trace: 0
valid: 0
********
sampler set details
set index: 990
partial tag: 0000000000000000
lru: 0000
reuse bit: 0
trace: 0
valid: 0
********
sampler set details
set index: 1057
partial tag: 0000000000000000
lru: 0000
reuse bit: 0
trace: 0
valid: 0
********
sampler set details
set index: 1123
partial tag: 0000000000000000
lru: 0000
reuse bit: 0
trace: 0
valid: 0
********
sampler set details
set index: 2047
partial tag: 0000000000000000
lru: 0000
reuse bit: 0
trace: 0
valid: 0
********
sampler set details
set index: 1981
partial tag: 0000000000000000
lru: 0000
reuse bit: 0
trace: 0
valid: 0
********
sampler set details
set index: 1915
partial tag: 0000000000000000
lru: 0000
reuse bit: 0
trace: 0
valid: 0
********
sampler set details
set index: 792
partial tag: 0000000000000000
lru: 0000
reuse bit: 0
trace: 0
valid: 0
********
sampler set details
set index: 726
partial tag: 0000000000000000
lru: 0000
reuse bit: 0
trace: 0
valid: 0
********
sampler set details
set index: 660
partial tag: 0000000000000000
lru: 0000
reuse bit: 0
trace: 0
valid: 0
********
sampler set details
set index: 1849
partial tag: 0000000000000000
lru: 0000
reuse bit: 0
trace: 0
valid: 0
********
sampler set details
set index: 594
partial tag: 0000000110111110
lru: 0000
reuse bit: 1
trace: 577
valid: 1
********
sampler set details
set index: 1783
partial tag: 0000000000000000
lru: 0000
reuse bit: 0
trace: 0
valid: 0
********
sampler set details
set index: 528
partial tag: 0000000000000000
lru: 0000
reuse bit: 0
trace: 0
valid: 0
********
sampler set details
set index: 1717
partial tag: 0000000000000000
lru: 0000
reuse bit: 0
trace: 0
valid: 0
********
sampler set details
set index: 462
partial tag: 0000000000000000
lru: 0000
reuse bit: 0
trace: 0
valid: 0
********
sampler set details
set index: 1651
partial tag: 0000000000000000
lru: 0000
reuse bit: 0
trace: 0
valid: 0
********
sampler set details
set index: 396
partial tag: 0000000000000000
lru: 0000
reuse bit: 0
trace: 0
valid: 0
********
sampler set details
set index: 1585
partial tag: 0000000000000000
lru: 0000
reuse bit: 0
trace: 0
valid: 0
********
sampler set details
set index: 330
partial tag: 0000000000000000
lru: 0000
reuse bit: 0
trace: 0
valid: 0
********
sampler set details
set index: 1519
partial tag: 0000000000000000
lru: 0000
reuse bit: 0
trace: 0
valid: 0
********
sampler set details
set index: 264
partial tag: 0000000000000000
lru: 0000
reuse bit: 0
trace: 0
valid: 0
********
sampler set details
set index: 1453
partial tag: 0000000000000000
lru: 0000
reuse bit: 0
trace: 0
valid: 0
********
sampler set details
set index: 198
partial tag: 0000000000000000
lru: 0000
reuse bit: 0
trace: 0
valid: 0
********
sampler set details
set index: 1387
partial tag: 0000000000000000
lru: 0000
reuse bit: 0
trace: 0
valid: 0
********
sampler set details
set index: 132
partial tag: 0000000000000000
lru: 0000
reuse bit: 0
trace: 0
valid: 0
********
sampler set details
set index: 1321
partial tag: 0000000000000000
lru: 0000
reuse bit: 0
trace: 0
valid: 0
********
sampler set details
set index: 66
partial tag: 0000000000000000
lru: 0000
reuse bit: 0
trace: 0
valid: 0
********
sampler set details
set index: 1255
partial tag: 0000000110111110
lru: 0000
reuse bit: 1
trace: 1997
valid: 1
********
sampler set details
set index: 0
partial tag: 0000000000000000
lru: 0000
reuse bit: 0
trace: 0
valid: 0
********
sampler set details
set index: 1189
partial tag: 0000000000000000
lru: 0000
reuse bit: 0
trace: 0
valid: 0
********
sampler set details
set index: 858
partial tag: 0000000000000000
lru: 0000
reuse bit: 0
trace: 0
valid: 0
********
sampler set details
set index: 924
partial tag: 0000000000000000
lru: 0000
reuse bit: 0
trace: 0
valid: 0
********
sampler set details
set index: 990
partial tag: 0000000000000000
lru: 0000
reuse bit: 0
trace: 0
valid: 0
********
sampler set details
set index: 1057
partial tag: 0000000000000000
lru: 0000
reuse bit: 0
trace: 0
valid: 0
********
sampler set details
set index: 1123
partial tag: 0000000000000000
lru: 0000
reuse bit: 0
trace: 0
valid: 0
********
sampler set details
set index: 2047
partial tag: 0000000000000000
lru: 0000
reuse bit: 0
trace: 0
valid: 0
********
sampler set details
set index: 1981
partial tag: 0000000000000000
lru: 0000
reuse bit: 0
trace: 0
valid: 0
********
sampler set details
set index: 1915
partial tag: 0000000000000000
lru: 0000
reuse bit: 0
trace: 0
valid: 0
********
sampler set details
set index: 792
partial tag: 0000000000000000
lru: 0000
reuse bit: 0
trace: 0
valid: 0
********
sampler set details
set index: 726
partial tag: 0000000000000000
lru: 0000
reuse bit: 0
trace: 0
valid: 0
********
sampler set details
set index: 660
partial tag: 0000000000000000
lru: 0000
reuse bit: 0
trace: 0
valid: 0
********
sampler set details
set index: 1849
partial tag: 0000000000000000
lru: 0000
reuse bit: 0
trace: 0
valid: 0
********
sampler set details
set index: 594
partial tag: 0000000110111110
lru: 0000
reuse bit: 1
trace: 577
valid: 1
********
sampler set details
set index: 1783
partial tag: 0000000000000000
lru: 0000
reuse bit: 0
trace: 0
valid: 0
********
sampler set details
set index: 528
partial tag: 0000000000000000
lru: 0000
reuse bit: 0
trace: 0
valid: 0
********
sampler set details
set index: 1717
partial tag: 0000000000000000
lru: 0000
reuse bit: 0
trace: 0
valid: 0
********
sampler set details
set index: 462
partial tag: 0000000000000000
lru: 0000
reuse bit: 0
trace: 0
valid: 0
********
sampler set details
set index: 1651
partial tag: 0000000000000000
lru: 0000
reuse bit: 0
trace: 0
valid: 0
********
sampler set details
set index: 396
partial tag: 0000000000000000
lru: 0000
reuse bit: 0
trace: 0
valid: 0
********
sampler set details
set index: 1585
partial tag: 0000000000000000
lru: 0000
reuse bit: 0
trace: 0
valid: 0
********
sampler set details
set index: 330
partial tag: 0000000000000000
lru: 0000
reuse bit: 0
trace: 0
valid: 0
********
sampler set details
set index: 1519
partial tag: 0000000000000000
lru: 0000
reuse bit: 0
trace: 0
valid: 0
********
sampler set details
set index: 264
partial tag: 0000000000000000
lru: 0000
reuse bit: 0
trace: 0
valid: 0
********
sampler set details
set index: 1453
partial tag: 0000000110111110
lru: 0000
reuse bit: 1
trace: 1464
valid: 1
********
sampler set details
set index: 198
partial tag: 0000000000000000
lru: 0000
reuse bit: 0
trace: 0
valid: 0
********
sampler set details
set index: 1387
partial tag: 0000000000000000
lru: 0000
reuse bit: 0
trace: 0
valid: 0
********
sampler set details
set index: 132
partial tag: 0000000000000000
lru: 0000
reuse bit: 0
trace: 0
valid: 0
********
sampler set details
set index: 1321
partial tag: 0000000000000000
lru: 0000
reuse bit: 0
trace: 0
valid: 0
********
sampler set details
set index: 66
partial tag: 0000000000000000
lru: 0000
reuse bit: 0
trace: 0
valid: 0
********
sampler set details
set index: 1255
partial tag: 0000000110111110
lru: 0000
reuse bit: 1
trace: 1997
valid: 1
********
sampler set details
set index: 0
partial tag: 0000000000000000
lru: 0000
reuse bit: 0
trace: 0
valid: 0
********
sampler set details
set index: 1189
partial tag: 0000000000000000
lru: 0000
reuse bit: 0
trace: 0
valid: 0
********
sampler set details
set index: 858
partial tag: 0000000000000000
lru: 0000
reuse bit: 0
trace: 0
valid: 0
********
sampler set details
set index: 924
partial tag: 0000000000000000
lru: 0000
reuse bit: 0
trace: 0
valid: 0
********
sampler set details
set index: 990
partial tag: 0000000000000000
lru: 0000
reuse bit: 0
trace: 0
valid: 0
********
sampler set details
set index: 1057
partial tag: 0000000000000000
lru: 0000
reuse bit: 0
trace: 0
valid: 0
********
sampler set details
set index: 1123
partial tag: 0000000000000000
lru: 0000
reuse bit: 0
trace: 0
valid: 0
********
sampler set details
set index: 2047
partial tag: 0000000000000000
lru: 0000
reuse bit: 0
trace: 0
valid: 0
********
sampler set details
set index: 1981
partial tag: 0000000000000000
lru: 0000
reuse bit: 0
trace: 0
valid: 0
********
sampler set details
set index: 1915
partial tag: 0000000000000000
lru: 0000
reuse bit: 0
trace: 0
valid: 0
********
sampler set details
set index: 792
partial tag: 0000000000000000
lru: 0000
reuse bit: 0
trace: 0
valid: 0
********
sampler set details
set index: 726
partial tag: 0000000000000000
lru: 0000
reuse bit: 0
trace: 0
valid: 0
********
sampler set details
set index: 660
partial tag: 0000000000000000
lru: 0000
reuse bit: 0
trace: 0
valid: 0
********
sampler set details
set index: 1849
partial tag: 0000000000000000
lru: 0000
reuse bit: 0
trace: 0
valid: 0
********
sampler set details
set index: 594
partial tag: 0000000110111110
lru: 0000
reuse bit: 1
trace: 577
valid: 1
********
sampler set details
set index: 1783
partial tag: 0000000000000000
lru: 0000
reuse bit: 0
trace: 0
valid: 0
********
sampler set details
set index: 528
partial tag: 0000000000000000
lru: 0000
reuse bit: 0
trace: 0
valid: 0
********
sampler set details
set index: 1717
partial tag: 0000000000000000
lru: 0000
reuse bit: 0
trace: 0
valid: 0
********
sampler set details
set index: 462
partial tag: 0000000000000000
lru: 0000
reuse bit: 0
trace: 0
valid: 0
********
sampler set details
set index: 1651
partial tag: 0000000000000000
lru: 0000
reuse bit: 0
trace: 0
valid: 0
********
sampler set details
set index: 396
partial tag: 0000000000000000
lru: 0000
reuse bit: 0
trace: 0
valid: 0
********
sampler set details
set index: 1585
partial tag: 0000000000000000
lru: 0000
reuse bit: 0
trace: 0
valid: 0
********
sampler set details
set index: 330
partial tag: 0000000000000000
lru: 0000
reuse bit: 0
trace: 0
valid: 0
********
sampler set details
set index: 1519
partial tag: 0000000000000000
lru: 0000
reuse bit: 0
trace: 0
valid: 0
********
sampler set details
set index: 264
partial tag: 0000000000000000
lru: 0000
reuse bit: 0
trace: 0
valid: 0
********
sampler set details
set index: 1453
partial tag: 0000000110111110
lru: 0000
reuse bit: 1
trace: 1464
valid: 1
********
sampler set details
set index: 198
partial tag: 0000000000000000
lru: 0000
reuse bit: 0
trace: 0
valid: 0
********
sampler set details
set index: 1387
partial tag: 0000000000000000
lru: 0000
reuse bit: 0
trace: 0
valid: 0
********
sampler set details
set index: 132
partial tag: 0000000110111110
lru: 0000
reuse bit: 1
trace: 129
valid: 1
********
sampler set details
set index: 1321
partial tag: 0000000000000000
lru: 0000
reuse bit: 0
trace: 0
valid: 0
********
sampler set details
set index: 66
partial tag: 0000000000000000
lru: 0000
reuse bit: 0
trace: 0
valid: 0
********
sampler set details
set index: 1255
partial tag: 0000000110111110
lru: 0000
reuse bit: 1
trace: 1997
valid: 1
********
sampler set details
set index: 0
partial tag: 0000000000000000
lru: 0000
reuse bit: 0
trace: 0
valid: 0
********
sampler set details
set index: 1189
partial tag: 0000000000000000
lru: 0000
reuse bit: 0
trace: 0
valid: 0
********
sampler set details
set index: 858
partial tag: 0000000000000000
lru: 0000
reuse bit: 0
trace: 0
valid: 0
********
sampler set details
set index: 924
partial tag: 0000000000000000
lru: 0000
reuse bit: 0
trace: 0
valid: 0
********
sampler set details
set index: 990
partial tag: 0000000000000000
lru: 0000
reuse bit: 0
trace: 0
valid: 0
********
sampler set details
set index: 1057
partial tag: 0000000000000000
lru: 0000
reuse bit: 0
trace: 0
valid: 0
********
sampler set details
set index: 1123
partial tag: 0000000000000000
lru: 0000
reuse bit: 0
trace: 0
valid: 0
********
sampler set details
set index: 2047
partial tag: 0000000000000000
lru: 0000
reuse bit: 0
trace: 0
valid: 0
********
sampler set details
set index: 1981
partial tag: 0000000000000000
lru: 0000
reuse bit: 0
trace: 0
valid: 0
********
sampler set details
set index: 1915
partial tag: 0000000000000000
lru: 0000
reuse bit: 0
trace: 0
valid: 0
********
sampler set details
set index: 792
partial tag: 0000000000000000
lru: 0000
reuse bit: 0
trace: 0
valid: 0
********
sampler set details
set index: 726
partial tag: 0000000000000000
lru: 0000
reuse bit: 0
trace: 0
valid: 0
********
sampler set details
set index: 660
partial tag: 0000000000000000
lru: 0000
reuse bit: 0
trace: 0
valid: 0
********
sampler set details
set index: 1849
partial tag: 0000000000000000
lru: 0000
reuse bit: 0
trace: 0
valid: 0
********
sampler set details
set index: 594
partial tag: 0000000110111110
lru: 0000
reuse bit: 1
trace: 577
valid: 1
********
sampler set details
set index: 1783
partial tag: 0000000000000000
lru: 0000
reuse bit: 0
trace: 0
valid: 0
********
sampler set details
set index: 528
partial tag: 0000000000000000
lru: 0000
reuse bit: 0
trace: 0
valid: 0
********
sampler set details
set index: 1717
partial tag: 0000000000000000
lru: 0000
reuse bit: 0
trace: 0
valid: 0
********
sampler set details
set index: 462
partial tag: 0000000000000000
lru: 0000
reuse bit: 0
trace: 0
valid: 0
********
sampler set details
set index: 1651
partial tag: 0000000000000000
lru: 0000
reuse bit: 0
trace: 0
valid: 0
********
sampler set details
set index: 396
partial tag: 0000000000000000
lru: 0000
reuse bit: 0
trace: 0
valid: 0
********
sampler set details
set index: 1585
partial tag: 0000000000000000
lru: 0000
reuse bit: 0
trace: 0
valid: 0
********
sampler set details
set index: 330
partial tag: 0000000000000000
lru: 0000
reuse bit: 0
trace: 0
valid: 0
********
sampler set details
set index: 1519
partial tag: 0000000000000000
lru: 0000
reuse bit: 0
trace: 0
valid: 0
********
sampler set details
set index: 264
partial tag: 0000000110111110
lru: 0000
reuse bit: 1
trace: 566
valid: 1
********
sampler set details
set index: 1453
partial tag: 0000000110111110
lru: 0000
reuse bit: 1
trace: 1464
valid: 1
********
sampler set details
set index: 198
partial tag: 0000000000000000
lru: 0000
reuse bit: 0
trace: 0
valid: 0
********
sampler set details
set index: 1387
partial tag: 0000000000000000
lru: 0000
reuse bit: 0
trace: 0
valid: 0
********
sampler set details
set index: 132
partial tag: 0000000110111110
lru: 0000
reuse bit: 1
trace: 129
valid: 1
********
sampler set details
set index: 1321
partial tag: 0000000000000000
lru: 0000
reuse bit: 0
trace: 0
valid: 0
********
sampler set details
set index: 66
partial tag: 0000000000000000
lru: 0000
reuse bit: 0
trace: 0
valid: 0
********
sampler set details
set index: 1255
partial tag: 0000000110111110
lru: 0000
reuse bit: 1
trace: 1997
valid: 1
********
sampler set details
set index: 0
partial tag: 0000000000000000
lru: 0000
reuse bit: 0
trace: 0
valid: 0
********
sampler set details
set index: 1189
partial tag: 0000000000000000
lru: 0000
reuse bit: 0
trace: 0
valid: 0
********
sampler set details
set index: 858
partial tag: 0000000000000000
lru: 0000
reuse bit: 0
trace: 0
valid: 0
********
sampler set details
set index: 924
partial tag: 0000000000000000
lru: 0000
reuse bit: 0
trace: 0
valid: 0
********
sampler set details
set index: 990
partial tag: 0000000000000000
lru: 0000
reuse bit: 0
trace: 0
valid: 0
********
sampler set details
set index: 1057
partial tag: 0000000000000000
lru: 0000
reuse bit: 0
trace: 0
valid: 0
********
sampler set details
set index: 1123
partial tag: 0000000000000000
lru: 0000
reuse bit: 0
trace: 0
valid: 0
********
sampler set details
set index: 2047
partial tag: 0000000000000000
lru: 0000
reuse bit: 0
trace: 0
valid: 0
********
sampler set details
set index: 1981
partial tag: 0000000000000000
lru: 0000
reuse bit: 0
trace: 0
valid: 0
********
sampler set details
set index: 1915
partial tag: 0000000000000000
lru: 0000
reuse bit: 0
trace: 0
valid: 0
********
sampler set details
set index: 792
partial tag: 0000000000000000
lru: 0000
reuse bit: 0
trace: 0
valid: 0
********
sampler set details
set index: 726
partial tag: 0000000000000000
lru: 0000
reuse bit: 0
trace: 0
valid: 0
********
sampler set details
set index: 660
partial tag: 0000000000000000
lru: 0000
reuse bit: 0
trace: 0
valid: 0
********
sampler set details
set index: 1849
partial tag: 0000000000000000
lru: 0000
reuse bit: 0
trace: 0
valid: 0
********
sampler set details
set index: 594
partial tag: 0000000110111110
lru: 0000
reuse bit: 1
trace: 577
valid: 1
********
sampler set details
set index: 1783
partial tag: 0000000000000000
lru: 0000
reuse bit: 0
trace: 0
valid: 0
********
sampler set details
set index: 528
partial tag: 0000000000000000
lru: 0000
reuse bit: 0
trace: 0
valid: 0
********
sampler set details
set index: 1717
partial tag: 0000000000000000
lru: 0000
reuse bit: 0
trace: 0
valid: 0
********
sampler set details
set index: 462
partial tag: 0000000000000000
lru: 0000
reuse bit: 0
trace: 0
valid: 0
********
sampler set details
set index: 1651
partial tag: 0000000110111110
lru: 0000
reuse bit: 1
trace: 1344
valid: 1
********
sampler set details
set index: 396
partial tag: 0000000000000000
lru: 0000
reuse bit: 0
trace: 0
valid: 0
********
sampler set details
set index: 1585
partial tag: 0000000000000000
lru: 0000
reuse bit: 0
trace: 0
valid: 0
********
sampler set details
set index: 330
partial tag: 0000000000000000
lru: 0000
reuse bit: 0
trace: 0
valid: 0
********
sampler set details
set index: 1519
partial tag: 0000000000000000
lru: 0000
reuse bit: 0
trace: 0
valid: 0
********
sampler set details
set index: 264
partial tag: 0000000110111110
lru: 0000
reuse bit: 1
trace: 566
valid: 1
********
sampler set details
set index: 1453
partial tag: 0000000110111110
lru: 0000
reuse bit: 1
trace: 1464
valid: 1
********
sampler set details
set index: 198
partial tag: 0000000000000000
lru: 0000
reuse bit: 0
trace: 0
valid: 0
********
sampler set details
set index: 1387
partial tag: 0000000000000000
lru: 0000
reuse bit: 0
trace: 0
valid: 0
********
sampler set details
set index: 132
partial tag: 0000000110111110
lru: 0000
reuse bit: 1
trace: 129
valid: 1
********
sampler set details
set index: 1321
partial tag: 0000000000000000
lru: 0000
reuse bit: 0
trace: 0
valid: 0
********
sampler set details
set index: 66
partial tag: 0000000000000000
lru: 0000
reuse bit: 0
trace: 0
valid: 0
********
sampler set details
set index: 1255
partial tag: 0000000110111110
lru: 0000
reuse bit: 1
trace: 1997
valid: 1
********
sampler set details
set index: 0
partial tag: 0000000000000000
lru: 0000
reuse bit: 0
trace: 0
valid: 0
********
sampler set details
set index: 1189
partial tag: 0000000000000000
lru: 0000
reuse bit: 0
trace: 0
valid: 0
********
sampler set details
set index: 858
partial tag: 0000000000000000
lru: 0000
reuse bit: 0
trace: 0
valid: 0
********
sampler set details
set index: 924
partial tag: 0000000000000000
lru: 0000
reuse bit: 0
trace: 0
valid: 0
********
sampler set details
set index: 990
partial tag: 0000000000000000
lru: 0000
reuse bit: 0
trace: 0
valid: 0
********
sampler set details
set index: 1057
partial tag: 0000000000000000
lru: 0000
reuse bit: 0
trace: 0
valid: 0
********
sampler set details
set index: 1123
partial tag: 0000000000000000
lru: 0000
reuse bit: 0
trace: 0
valid: 0
********
sampler set details
set index: 2047
partial tag: 0000000000000000
lru: 0000
reuse bit: 0
trace: 0
valid: 0
********
sampler set details
set index: 1981
partial tag: 0000000000000000
lru: 0000
reuse bit: 0
trace: 0
valid: 0
********
sampler set details
set index: 1915
partial tag: 0000000000000000
lru: 0000
reuse bit: 0
trace: 0
valid: 0
********
sampler set details
set index: 792
partial tag: 0000000000000000
lru: 0000
reuse bit: 0
trace: 0
valid: 0
********
sampler set details
set index: 726
partial tag: 0000000000000000
lru: 0000
reuse bit: 0
trace: 0
valid: 0
********
sampler set details
set index: 660
partial tag: 0000000000000000
lru: 0000
reuse bit: 0
trace: 0
valid: 0
********
sampler set details
set index: 1849
partial tag: 0000000000000000
lru: 0000
reuse bit: 0
trace: 0
valid: 0
********
sampler set details
set index: 594
partial tag: 0000000110111110
lru: 0000
reuse bit: 1
trace: 1878
valid: 1
********
sampler set details
set index: 1783
partial tag: 0000000000000000
lru: 0000
reuse bit: 0
trace: 0
valid: 0
********
sampler set details
set index: 528
partial tag: 0000000000000000
lru: 0000
reuse bit: 0
trace: 0
valid: 0
********
sampler set details
set index: 1717
partial tag: 0000000000000000
lru: 0000
reuse bit: 0
trace: 0
valid: 0
********
sampler set details
set index: 462
partial tag: 0000000000000000
lru: 0000
reuse bit: 0
trace: 0
valid: 0
********
sampler set details
set index: 1651
partial tag: 0000000110111110
lru: 0000
reuse bit: 1
trace: 1344
valid: 1
********
sampler set details
set index: 396
partial tag: 0000000000000000
lru: 0000
reuse bit: 0
trace: 0
valid: 0
********
sampler set details
set index: 1585
partial tag: 0000000000000000
lru: 0000
reuse bit: 0
trace: 0
valid: 0
********
sampler set details
set index: 330
partial tag: 0000000000000000
lru: 0000
reuse bit: 0
trace: 0
valid: 0
********
sampler set details
set index: 1519
partial tag: 0000000000000000
lru: 0000
reuse bit: 0
trace: 0
valid: 0
********
sampler set details
set index: 264
partial tag: 0000000110111110
lru: 0000
reuse bit: 1
trace: 566
valid: 1
********
sampler set details
set index: 1453
partial tag: 0000000110111110
lru: 0000
reuse bit: 1
trace: 1464
valid: 1
********
sampler set details
set index: 198
partial tag: 0000000000000000
lru: 0000
reuse bit: 0
trace: 0
valid: 0
********
sampler set details
set index: 1387
partial tag: 0000000000000000
lru: 0000
reuse bit: 0
trace: 0
valid: 0
********
sampler set details
set index: 132
partial tag: 0000000110111110
lru: 0000
reuse bit: 1
trace: 129
valid: 1
********
sampler set details
set index: 1321
partial tag: 0000000000000000
lru: 0000
reuse bit: 0
trace: 0
valid: 0
********
sampler set details
set index: 66
partial tag: 0000000000000000
lru: 0000
reuse bit: 0
trace: 0
valid: 0
********
sampler set details
set index: 1255
partial tag: 0000000110111110
lru: 0000
reuse bit: 1
trace: 1997
valid: 1
********
sampler set details
set index: 0
partial tag: 0000000000000000
lru: 0000
reuse bit: 0
trace: 0
valid: 0
********
sampler set details
set index: 1189
partial tag: 0000000000000000
lru: 0000
reuse bit: 0
trace: 0
valid: 0
********
sampler set details
set index: 858
partial tag: 0000000000000000
lru: 0000
reuse bit: 0
trace: 0
valid: 0
********
sampler set details
set index: 924
partial tag: 0000000000000000
lru: 0000
reuse bit: 0
trace: 0
valid: 0
********
sampler set details
set index: 990
partial tag: 0000000000000000
lru: 0000
reuse bit: 0
trace: 0
valid: 0
********
sampler set details
set index: 1057
partial tag: 0000000000000000
lru: 0000
reuse bit: 0
trace: 0
valid: 0
********
sampler set details
set index: 1123
partial tag: 0000000000000000
lru: 0000
reuse bit: 0
trace: 0
valid: 0
********
sampler set details
set index: 2047
partial tag: 0000000000000000
lru: 0000
reuse bit: 0
trace: 0
valid: 0
********
sampler set details
set index: 1981
partial tag: 0000000000000000
lru: 0000
reuse bit: 0
trace: 0
valid: 0
********
sampler set details
set index: 1915
partial tag: 0000000000000000
lru: 0000
reuse bit: 0
trace: 0
valid: 0
********
sampler set details
set index: 792
partial tag: 0000000000000000
lru: 0000
reuse bit: 0
trace: 0
valid: 0
********
sampler set details
set index: 726
partial tag: 0000000000000000
lru: 0000
reuse bit: 0
trace: 0
valid: 0
********
sampler set details
set index: 660
partial tag: 0000000110111110
lru: 0000
reuse bit: 1
trace: 1236
valid: 1
********
sampler set details
set index: 1849
partial tag: 0000000000000000
lru: 0000
reuse bit: 0
trace: 0
valid: 0
********
sampler set details
set index: 594
partial tag: 0000000110111110
lru: 0000
reuse bit: 1
trace: 1878
valid: 1
********
sampler set details
set index: 1783
partial tag: 0000000000000000
lru: 0000
reuse bit: 0
trace: 0
valid: 0
********
sampler set details
set index: 528
partial tag: 0000000000000000
lru: 0000
reuse bit: 0
trace: 0
valid: 0
********
sampler set details
set index: 1717
partial tag: 0000000000000000
lru: 0000
reuse bit: 0
trace: 0
valid: 0
********
sampler set details
set index: 462
partial tag: 0000000000000000
lru: 0000
reuse bit: 0
trace: 0
valid: 0
********
sampler set details
set index: 1651
partial tag: 0000000110111110
lru: 0000
reuse bit: 1
trace: 1344
valid: 1
********
sampler set details
set index: 396
partial tag: 0000000000000000
lru: 0000
reuse bit: 0
trace: 0
valid: 0
********
sampler set details
set index: 1585
partial tag: 0000000000000000
lru: 0000
reuse bit: 0
trace: 0
valid: 0
********
sampler set details
set index: 330
partial tag: 0000000000000000
lru: 0000
reuse bit: 0
trace: 0
valid: 0
********
sampler set details
set index: 1519
partial tag: 0000000000000000
lru: 0000
reuse bit: 0
trace: 0
valid: 0
********
sampler set details
set index: 264
partial tag: 0000000110111110
lru: 0000
reuse bit: 1
trace: 566
valid: 1
********
sampler set details
set index: 1453
partial tag: 0000000110111110
lru: 0000
reuse bit: 1
trace: 1464
valid: 1
********
sampler set details
set index: 198
partial tag: 0000000000000000
lru: 0000
reuse bit: 0
trace: 0
valid: 0
********
sampler set details
set index: 1387
partial tag: 0000000000000000
lru: 0000
reuse bit: 0
trace: 0
valid: 0
********
sampler set details
set index: 132
partial tag: 0000000110111110
lru: 0000
reuse bit: 1
trace: 129
valid: 1
********
sampler set details
set index: 1321
partial tag: 0000000000000000
lru: 0000
reuse bit: 0
trace: 0
valid: 0
********
sampler set details
set index: 66
partial tag: 0000000000000000
lru: 0000
reuse bit: 0
trace: 0
valid: 0
********
sampler set details
set index: 1255
partial tag: 0000000110111110
lru: 0000
reuse bit: 1
trace: 1997
valid: 1
********
sampler set details
set index: 0
partial tag: 0000000000000000
lru: 0000
reuse bit: 0
trace: 0
valid: 0
********
sampler set details
set index: 1189
partial tag: 0000000000000000
lru: 0000
reuse bit: 0
trace: 0
valid: 0
********
sampler set details
set index: 858
partial tag: 0000000000000000
lru: 0000
reuse bit: 0
trace: 0
valid: 0
********
sampler set details
set index: 924
partial tag: 0000000000000000
lru: 0000
reuse bit: 0
trace: 0
valid: 0
********
sampler set details
set index: 990
partial tag: 0000000000000000
lru: 0000
reuse bit: 0
trace: 0
valid: 0
********
sampler set details
set index: 1057
partial tag: 0000000000000000
lru: 0000
reuse bit: 0
trace: 0
valid: 0
********
sampler set details
set index: 1123
partial tag: 0000000000000000
lru: 0000
reuse bit: 0
trace: 0
valid: 0
********
sampler set details
set index: 2047
partial tag: 0000000000000000
lru: 0000
reuse bit: 0
trace: 0
valid: 0
********
sampler set details
set index: 1981
partial tag: 0000000000000000
lru: 0000
reuse bit: 0
trace: 0
valid: 0
********
sampler set details
set index: 1915
partial tag: 0000000000000000
lru: 0000
reuse bit: 0
trace: 0
valid: 0
********
sampler set details
set index: 792
partial tag: 0000000000000000
lru: 0000
reuse bit: 0
trace: 0
valid: 0
********
sampler set details
set index: 726
partial tag: 0000000000000000
lru: 0000
reuse bit: 0
trace: 0
valid: 0
********
sampler set details
set index: 660
partial tag: 0000000110111110
lru: 0000
reuse bit: 1
trace: 1236
valid: 1
********
sampler set details
set index: 1849
partial tag: 0000000000000000
lru: 0000
reuse bit: 0
trace: 0
valid: 0
********
sampler set details
set index: 594
partial tag: 0000000110111110
lru: 0000
reuse bit: 1
trace: 1878
valid: 1
********
sampler set details
set index: 1783
partial tag: 0000000000000000
lru: 0000
reuse bit: 0
trace: 0
valid: 0
********
sampler set details
set index: 528
partial tag: 0000000000000000
lru: 0000
reuse bit: 0
trace: 0
valid: 0
********
sampler set details
set index: 1717
partial tag: 0000000000000000
lru: 0000
reuse bit: 0
trace: 0
valid: 0
********
sampler set details
set index: 462
partial tag: 0000000000000000
lru: 0000
reuse bit: 0
trace: 0
valid: 0
********
sampler set details
set index: 1651
partial tag: 0000000110111110
lru: 0000
reuse bit: 1
trace: 1344
valid: 1
********
sampler set details
set index: 396
partial tag: 0000000000000000
lru: 0000
reuse bit: 0
trace: 0
valid: 0
********
sampler set details
set index: 1585
partial tag: 0000000000000000
lru: 0000
reuse bit: 0
trace: 0
valid: 0
********
sampler set details
set index: 330
partial tag: 0000000110111110
lru: 0000
reuse bit: 1
trace: 320
valid: 1
********
sampler set details
set index: 1519
partial tag: 0000000000000000
lru: 0000
reuse bit: 0
trace: 0
valid: 0
********
sampler set details
set index: 264
partial tag: 0000000110111110
lru: 0000
reuse bit: 1
trace: 566
valid: 1
********
sampler set details
set index: 1453
partial tag: 0000000110111110
lru: 0000
reuse bit: 1
trace: 1464
valid: 1
********
sampler set details
set index: 198
partial tag: 0000000000000000
lru: 0000
reuse bit: 0
trace: 0
valid: 0
********
sampler set details
set index: 1387
partial tag: 0000000000000000
lru: 0000
reuse bit: 0
trace: 0
valid: 0
********
sampler set details
set index: 132
partial tag: 0000000110111110
lru: 0000
reuse bit: 1
trace: 129
valid: 1
********
sampler set details
set index: 1321
partial tag: 0000000000000000
lru: 0000
reuse bit: 0
trace: 0
valid: 0
********
sampler set details
set index: 66
partial tag: 0000000000000000
lru: 0000
reuse bit: 0
trace: 0
valid: 0
********
sampler set details
set index: 1255
partial tag: 0000000110111110
lru: 0000
reuse bit: 1
trace: 1997
valid: 1
********
sampler set details
set index: 0
partial tag: 0000000000000000
lru: 0000
reuse bit: 0
trace: 0
valid: 0
********
sampler set details
set index: 1189
partial tag: 0000000000000000
lru: 0000
reuse bit: 0
trace: 0
valid: 0
********
sampler set details
set index: 858
partial tag: 0000000000000000
lru: 0000
reuse bit: 0
trace: 0
valid: 0
********
sampler set details
set index: 924
partial tag: 0000000000000000
lru: 0000
reuse bit: 0
trace: 0
valid: 0
********
sampler set details
set index: 990
partial tag: 0000000000000000
lru: 0000
reuse bit: 0
trace: 0
valid: 0
********
sampler set details
set index: 1057
partial tag: 0000000000000000
lru: 0000
reuse bit: 0
trace: 0
valid: 0
********
sampler set details
set index: 1123
partial tag: 0000000000000000
lru: 0000
reuse bit: 0
trace: 0
valid: 0
********
sampler set details
set index: 2047
partial tag: 0000000000000000
lru: 0000
reuse bit: 0
trace: 0
valid: 0
********
sampler set details
set index: 1981
partial tag: 0000000000000000
lru: 0000
reuse bit: 0
trace: 0
valid: 0
********
sampler set details
set index: 1915
partial tag: 0000000000000000
lru: 0000
reuse bit: 0
trace: 0
valid: 0
********
sampler set details
set index: 792
partial tag: 0000000000000000
lru: 0000
reuse bit: 0
trace: 0
valid: 0
********
sampler set details
set index: 726
partial tag: 0000000000000000
lru: 0000
reuse bit: 0
trace: 0
valid: 0
********
sampler set details
set index: 660
partial tag: 0000000110111110
lru: 0000
reuse bit: 1
trace: 1236
valid: 1
********
sampler set details
set index: 1849
partial tag: 0000000000000000
lru: 0000
reuse bit: 0
trace: 0
valid: 0
********
sampler set details
set index: 594
partial tag: 0000000110111110
lru: 0000
reuse bit: 1
trace: 1878
valid: 1
********
sampler set details
set index: 1783
partial tag: 0000000000000000
lru: 0000
reuse bit: 0
trace: 0
valid: 0
********
sampler set details
set index: 528
partial tag: 0000000000000000
lru: 0000
reuse bit: 0
trace: 0
valid: 0
********
sampler set details
set index: 1717
partial tag: 0000000000000000
lru: 0000
reuse bit: 0
trace: 0
valid: 0
********
sampler set details
set index: 462
partial tag: 0000000000000000
lru: 0000
reuse bit: 0
trace: 0
valid: 0
********
sampler set details
set index: 1651
partial tag: 0000000110111110
lru: 0000
reuse bit: 1
trace: 1344
valid: 1
********
sampler set details
set index: 396
partial tag: 0000000000000000
lru: 0000
reuse bit: 0
trace: 0
valid: 0
********
sampler set details
set index: 1585
partial tag: 0000000000000000
lru: 0000
reuse bit: 0
trace: 0
valid: 0
********
sampler set details
set index: 330
partial tag: 0000000110111110
lru: 0000
reuse bit: 1
trace: 320
valid: 1
********
sampler set details
set index: 1519
partial tag: 0000000000000000
lru: 0000
reuse bit: 0
trace: 0
valid: 0
********
sampler set details
set index: 264
partial tag: 0000000110111110
lru: 0000
reuse bit: 1
trace: 566
valid: 1
********
sampler set details
set index: 1453
partial tag: 0000000110111110
lru: 0000
reuse bit: 1
trace: 1464
valid: 1
********
sampler set details
set index: 198
partial tag: 0000000000000000
lru: 0000
reuse bit: 0
trace: 0
valid: 0
********
sampler set details
set index: 1387
partial tag: 0000000000000000
lru: 0000
reuse bit: 0
trace: 0
valid: 0
********
sampler set details
set index: 132
partial tag: 0000000110111110
lru: 0000
reuse bit: 1
trace: 129
valid: 1
********
sampler set details
set index: 1321
partial tag: 0000000000000000
lru: 0000
reuse bit: 0
trace: 0
valid: 0
********
sampler set details
set index: 66
partial tag: 0000000000000000
lru: 0000
reuse bit: 0
trace: 0
valid: 0
********
sampler set details
set index: 1255
partial tag: 0000000110111110
lru: 0000
reuse bit: 1
trace: 1997
valid: 1
********
sampler set details
set index: 0
partial tag: 0000000000000000
lru: 0000
reuse bit: 0
trace: 0
valid: 0
********
sampler set details
set index: 1189
partial tag: 0000000000000000
lru: 0000
reuse bit: 0
trace: 0
valid: 0
********
sampler set details
set index: 858
partial tag: 0000000110111110
lru: 0000
reuse bit: 1
trace: 834
valid: 1
********
sampler set details
set index: 924
partial tag: 0000000000000000
lru: 0000
reuse bit: 0
trace: 0
valid: 0
********
sampler set details
set index: 990
partial tag: 0000000000000000
lru: 0000
reuse bit: 0
trace: 0
valid: 0
********
sampler set details
set index: 1057
partial tag: 0000000000000000
lru: 0000
reuse bit: 0
trace: 0
valid: 0
********
sampler set details
set index: 1123
partial tag: 0000000000000000
lru: 0000
reuse bit: 0
trace: 0
valid: 0
********
sampler set details
set index: 2047
partial tag: 0000000000000000
lru: 0000
reuse bit: 0
trace: 0
valid: 0
********
sampler set details
set index: 1981
partial tag: 0000000000000000
lru: 0000
reuse bit: 0
trace: 0
valid: 0
********
sampler set details
set index: 1915
partial tag: 0000000000000000
lru: 0000
reuse bit: 0
trace: 0
valid: 0
********
sampler set details
set index: 792
partial tag: 0000000000000000
lru: 0000
reuse bit: 0
trace: 0
valid: 0
********
sampler set details
set index: 726
partial tag: 0000000110111110
lru: 0000
reuse bit: 1
trace: 481
valid: 1
********
sampler set details
set index: 660
partial tag: 0000000110111110
lru: 0000
reuse bit: 1
trace: 1236
valid: 1
********
sampler set details
set index: 1849
partial tag: 0000000000000000
lru: 0000
reuse bit: 0
trace: 0
valid: 0
********
sampler set details
set index: 594
partial tag: 0000000110111110
lru: 0000
reuse bit: 1
trace: 1878
valid: 1
********
sampler set details
set index: 1783
partial tag: 0000000000000000
lru: 0000
reuse bit: 0
trace: 0
valid: 0
********
sampler set details
set index: 528
partial tag: 0000000000000000
lru: 0000
reuse bit: 0
trace: 0
valid: 0
********
sampler set details
set index: 1717
partial tag: 0000000000000000
lru: 0000
reuse bit: 0
trace: 0
valid: 0
********
sampler set details
set index: 462
partial tag: 0000000000000000
lru: 0000
reuse bit: 0
trace: 0
valid: 0
********
sampler set details
set index: 1651
partial tag: 0000000110111110
lru: 0000
reuse bit: 1
trace: 1344
valid: 1
********
sampler set details
set index: 396
partial tag: 0000000000000000
lru: 0000
reuse bit: 0
trace: 0
valid: 0
********
sampler set details
set index: 1585
partial tag: 0000000000000000
lru: 0000
reuse bit: 0
trace: 0
valid: 0
********
sampler set details
set index: 330
partial tag: 0000000110111110
lru: 0000
reuse bit: 1
trace: 320
valid: 1
********
sampler set details
set index: 1519
partial tag: 0000000000000000
lru: 0000
reuse bit: 0
trace: 0
valid: 0
********
sampler set details
set index: 264
partial tag: 0000000110111110
lru: 0000
reuse bit: 1
trace: 566
valid: 1
********
sampler set details
set index: 1453
partial tag: 0000000110111110
lru: 0000
reuse bit: 1
trace: 1464
valid: 1
********
sampler set details
set index: 198
partial tag: 0000000000000000
lru: 0000
reuse bit: 0
trace: 0
valid: 0
********
sampler set details
set index: 1387
partial tag: 0000000000000000
lru: 0000
reuse bit: 0
trace: 0
valid: 0
********
sampler set details
set index: 132
partial tag: 0000000110111110
lru: 0000
reuse bit: 1
trace: 129
valid: 1
********
sampler set details
set index: 1321
partial tag: 0000000000000000
lru: 0000
reuse bit: 0
trace: 0
valid: 0
********
sampler set details
set index: 66
partial tag: 0000000000000000
lru: 0000
reuse bit: 0
trace: 0
valid: 0
********
sampler set details
set index: 1255
partial tag: 0000000110111110
lru: 0000
reuse bit: 1
trace: 1997
valid: 1
********
sampler set details
set index: 0
partial tag: 0000000000000000
lru: 0000
reuse bit: 0
trace: 0
valid: 0
********
sampler set details
set index: 1189
partial tag: 0000000000000000
lru: 0000
reuse bit: 0
trace: 0
valid: 0
********
sampler set details
set index: 858
partial tag: 0000000110111110
lru: 0000
reuse bit: 1
trace: 834
valid: 1
********
sampler set details
set index: 924
partial tag: 0000000000000000
lru: 0000
reuse bit: 0
trace: 0
valid: 0
********
sampler set details
set index: 990
partial tag: 0000000000000000
lru: 0000
reuse bit: 0
trace: 0
valid: 0
********
sampler set details
set index: 1057
partial tag: 0000000000000000
lru: 0000
reuse bit: 0
trace: 0
valid: 0
********
sampler set details
set index: 1123
partial tag: 0000000000000000
lru: 0000
reuse bit: 0
trace: 0
valid: 0
********
sampler set details
set index: 2047
partial tag: 0000000000000000
lru: 0000
reuse bit: 0
trace: 0
valid: 0
********
sampler set details
set index: 1981
partial tag: 0000000000000000
lru: 0000
reuse bit: 0
trace: 0
valid: 0
********
sampler set details
set index: 1915
partial tag: 0000000000000000
lru: 0000
reuse bit: 0
trace: 0
valid: 0
********
sampler set details
set index: 792
partial tag: 0000000000000000
lru: 0000
reuse bit: 0
trace: 0
valid: 0
********
sampler set details
set index: 726
partial tag: 0000000110111110
lru: 0000
reuse bit: 1
trace: 706
valid: 1
********
sampler set details
set index: 660
partial tag: 0000000110111110
lru: 0000
reuse bit: 1
trace: 1236
valid: 1
********
sampler set details
set index: 1849
partial tag: 0000000000000000
lru: 0000
reuse bit: 0
trace: 0
valid: 0
********
sampler set details
set index: 594
partial tag: 0000000110111110
lru: 0000
reuse bit: 1
trace: 1878
valid: 1
********
sampler set details
set index: 1783
partial tag: 0000000000000000
lru: 0000
reuse bit: 0
trace: 0
valid: 0
********
sampler set details
set index: 528
partial tag: 0000000000000000
lru: 0000
reuse bit: 0
trace: 0
valid: 0
********
sampler set details
set index: 1717
partial tag: 0000000000000000
lru: 0000
reuse bit: 0
trace: 0
valid: 0
********
sampler set details
set index: 462
partial tag: 0000000000000000
lru: 0000
reuse bit: 0
trace: 0
valid: 0
********
sampler set details
set index: 1651
partial tag: 0000000110111110
lru: 0000
reuse bit: 1
trace: 1344
valid: 1
********
sampler set details
set index: 396
partial tag: 0000000000000000
lru: 0000
reuse bit: 0
trace: 0
valid: 0
********
sampler set details
set index: 1585
partial tag: 0000000000000000
lru: 0000
reuse bit: 0
trace: 0
valid: 0
********
sampler set details
set index: 330
partial tag: 0000000110111110
lru: 0000
reuse bit: 1
trace: 320
valid: 1
********
sampler set details
set index: 1519
partial tag: 0000000000000000
lru: 0000
reuse bit: 0
trace: 0
valid: 0
********
sampler set details
set index: 264
partial tag: 0000000110111110
lru: 0000
reuse bit: 1
trace: 566
valid: 1
********
sampler set details
set index: 1453
partial tag: 0000000110111110
lru: 0000
reuse bit: 1
trace: 1464
valid: 1
********
sampler set details
set index: 198
partial tag: 0000000000000000
lru: 0000
reuse bit: 0
trace: 0
valid: 0
********
sampler set details
set index: 1387
partial tag: 0000000000000000
lru: 0000
reuse bit: 0
trace: 0
valid: 0
********
sampler set details
set index: 132
partial tag: 0000000110111110
lru: 0000
reuse bit: 1
trace: 129
valid: 1
********
sampler set details
set index: 1321
partial tag: 0000000000000000
lru: 0000
reuse bit: 0
trace: 0
valid: 0
********
sampler set details
set index: 66
partial tag: 0000000000000000
lru: 0000
reuse bit: 0
trace: 0
valid: 0
********
sampler set details
set index: 1255
partial tag: 0000000110111110
lru: 0000
reuse bit: 1
trace: 1997
valid: 1
********
sampler set details
set index: 0
partial tag: 0000000000000000
lru: 0000
reuse bit: 0
trace: 0
valid: 0
********
sampler set details
set index: 1189
partial tag: 0000000000000000
lru: 0000
reuse bit: 0
trace: 0
valid: 0
********
sampler set details
set index: 858
partial tag: 0000000110111110
lru: 0000
reuse bit: 1
trace: 834
valid: 1
********
sampler set details
set index: 924
partial tag: 0000000000000000
lru: 0000
reuse bit: 0
trace: 0
valid: 0
********
sampler set details
set index: 990
partial tag: 0000000000000000
lru: 0000
reuse bit: 0
trace: 0
valid: 0
********
sampler set details
set index: 1057
partial tag: 0000000000000000
lru: 0000
reuse bit: 0
trace: 0
valid: 0
********
sampler set details
set index: 1123
partial tag: 0000000000000000
lru: 0000
reuse bit: 0
trace: 0
valid: 0
********
sampler set details
set index: 2047
partial tag: 0000000000000000
lru: 0000
reuse bit: 0
trace: 0
valid: 0
********
sampler set details
set index: 1981
partial tag: 0000000000000000
lru: 0000
reuse bit: 0
trace: 0
valid: 0
********
sampler set details
set index: 1915
partial tag: 0000000000000000
lru: 0000
reuse bit: 0
trace: 0
valid: 0
********
sampler set details
set index: 792
partial tag: 0000000000000000
lru: 0000
reuse bit: 0
trace: 0
valid: 0
********
sampler set details
set index: 726
partial tag: 0000000110111110
lru: 0000
reuse bit: 1
trace: 706
valid: 1
********
sampler set details
set index: 660
partial tag: 0000000110111110
lru: 0000
reuse bit: 1
trace: 1236
valid: 1
********
sampler set details
set index: 1849
partial tag: 0000000000000000
lru: 0000
reuse bit: 0
trace: 0
valid: 0
********
sampler set details
set index: 594
partial tag: 0000000110111110
lru: 0000
reuse bit: 1
trace: 1878
valid: 1
********
sampler set details
set index: 1783
partial tag: 0000000000000000
lru: 0000
reuse bit: 0
trace: 0
valid: 0
********
sampler set details
set index: 528
partial tag: 0000000110111110
lru: 0000
reuse bit: 1
trace: 288
valid: 1
********
sampler set details
set index: 1717
partial tag: 0000000000000000
lru: 0000
reuse bit: 0
trace: 0
valid: 0
********
sampler set details
set index: 462
partial tag: 0000000000000000
lru: 0000
reuse bit: 0
trace: 0
valid: 0
********
sampler set details
set index: 1651
partial tag: 0000000110111110
lru: 0000
reuse bit: 1
trace: 1344
valid: 1
********
sampler set details
set index: 396
partial tag: 0000000000000000
lru: 0000
reuse bit: 0
trace: 0
valid: 0
********
sampler set details
set index: 1585
partial tag: 0000000000000000
lru: 0000
reuse bit: 0
trace: 0
valid: 0
********
sampler set details
set index: 330
partial tag: 0000000110111110
lru: 0000
reuse bit: 1
trace: 320
valid: 1
********
sampler set details
set index: 1519
partial tag: 0000000000000000
lru: 0000
reuse bit: 0
trace: 0
valid: 0
********
sampler set details
set index: 264
partial tag: 0000000110111110
lru: 0000
reuse bit: 1
trace: 566
valid: 1
********
sampler set details
set index: 1453
partial tag: 0000000110111110
lru: 0000
reuse bit: 1
trace: 1464
valid: 1
********
sampler set details
set index: 198
partial tag: 0000000000000000
lru: 0000
reuse bit: 0
trace: 0
valid: 0
********
sampler set details
set index: 1387
partial tag: 0000000000000000
lru: 0000
reuse bit: 0
trace: 0
valid: 0
********
sampler set details
set index: 132
partial tag: 0000000110111110
lru: 0000
reuse bit: 1
trace: 129
valid: 1
********
sampler set details
set index: 1321
partial tag: 0000000000000000
lru: 0000
reuse bit: 0
trace: 0
valid: 0
********
sampler set details
set index: 66
partial tag: 0000000000000000
lru: 0000
reuse bit: 0
trace: 0
valid: 0
********
sampler set details
set index: 1255
partial tag: 0000000110111110
lru: 0000
reuse bit: 1
trace: 1997
valid: 1
********
sampler set details
set index: 0
partial tag: 0000000000000000
lru: 0000
reuse bit: 0
trace: 0
valid: 0
********
sampler set details
set index: 1189
partial tag: 0000000000000000
lru: 0000
reuse bit: 0
trace: 0
valid: 0
********
sampler set details
set index: 858
partial tag: 0000000110111110
lru: 0000
reuse bit: 1
trace: 834
valid: 1
********
sampler set details
set index: 924
partial tag: 0000000000000000
lru: 0000
reuse bit: 0
trace: 0
valid: 0
********
sampler set details
set index: 990
partial tag: 0000000000000000
lru: 0000
reuse bit: 0
trace: 0
valid: 0
********
sampler set details
set index: 1057
partial tag: 0000000000000000
lru: 0000
reuse bit: 0
trace: 0
valid: 0
********
sampler set details
set index: 1123
partial tag: 0000000000000000
lru: 0000
reuse bit: 0
trace: 0
valid: 0
********
sampler set details
set index: 2047
partial tag: 0000000000000000
lru: 0000
reuse bit: 0
trace: 0
valid: 0
********
sampler set details
set index: 1981
partial tag: 0000000000000000
lru: 0000
reuse bit: 0
trace: 0
valid: 0
********
sampler set details
set index: 1915
partial tag: 0000000000000000
lru: 0000
reuse bit: 0
trace: 0
valid: 0
********
sampler set details
set index: 792
partial tag: 0000000000000000
lru: 0000
reuse bit: 0
trace: 0
valid: 0
********
sampler set details
set index: 726
partial tag: 0000000110111110
lru: 0000
reuse bit: 1
trace: 706
valid: 1
********
sampler set details
set index: 660
partial tag: 0000000110111110
lru: 0000
reuse bit: 1
trace: 1236
valid: 1
********
sampler set details
set index: 1849
partial tag: 0000000000000000
lru: 0000
reuse bit: 0
trace: 0
valid: 0
********
sampler set details
set index: 594
partial tag: 0000000110111110
lru: 0000
reuse bit: 1
trace: 1878
valid: 1
********
sampler set details
set index: 1783
partial tag: 0000000000000000
lru: 0000
reuse bit: 0
trace: 0
valid: 0
********
sampler set details
set index: 528
partial tag: 0000000110111110
lru: 0000
reuse bit: 1
trace: 288
valid: 1
********
sampler set details
set index: 1717
partial tag: 0000000000000000
lru: 0000
reuse bit: 0
trace: 0
valid: 0
********
sampler set details
set index: 462
partial tag: 0000000000000000
lru: 0000
reuse bit: 0
trace: 0
valid: 0
********
sampler set details
set index: 1651
partial tag: 0000000110111110
lru: 0000
reuse bit: 1
trace: 1344
valid: 1
********
sampler set details
set index: 396
partial tag: 0000000000000000
lru: 0000
reuse bit: 0
trace: 0
valid: 0
********
sampler set details
set index: 1585
partial tag: 0000000000000000
lru: 0000
reuse bit: 0
trace: 0
valid: 0
********
sampler set details
set index: 330
partial tag: 0000000110111110
lru: 0000
reuse bit: 1
trace: 320
valid: 1
********
sampler set details
set index: 1519
partial tag: 0000000000000000
lru: 0000
reuse bit: 0
trace: 0
valid: 0
********
sampler set details
set index: 264
partial tag: 0000000110111110
lru: 0000
reuse bit: 1
trace: 566
valid: 1
********
sampler set details
set index: 1453
partial tag: 0000000110111110
lru: 0000
reuse bit: 1
trace: 1464
valid: 1
********
sampler set details
set index: 198
partial tag: 0000000110111110
lru: 0000
reuse bit: 1
trace: 189
valid: 1
********
sampler set details
set index: 1387
partial tag: 0000000000000000
lru: 0000
reuse bit: 0
trace: 0
valid: 0
********
sampler set details
set index: 132
partial tag: 0000000110111110
lru: 0000
reuse bit: 1
trace: 129
valid: 1
********
sampler set details
set index: 1321
partial tag: 0000000000000000
lru: 0000
reuse bit: 0
trace: 0
valid: 0
********
sampler set details
set index: 66
partial tag: 0000000000000000
lru: 0000
reuse bit: 0
trace: 0
valid: 0
********
sampler set details
set index: 1255
partial tag: 0000000110111110
lru: 0000
reuse bit: 1
trace: 1997
valid: 1
********
sampler set details
set index: 0
partial tag: 0000000000000000
lru: 0000
reuse bit: 0
trace: 0
valid: 0
********
sampler set details
set index: 1189
partial tag: 0000000000000000
lru: 0000
reuse bit: 0
trace: 0
valid: 0
********
sampler set details
set index: 858
partial tag: 0000000110111110
lru: 0000
reuse bit: 1
trace: 834
valid: 1
********
sampler set details
set index: 924
partial tag: 0000000000000000
lru: 0000
reuse bit: 0
trace: 0
valid: 0
********
sampler set details
set index: 990
partial tag: 0000000000000000
lru: 0000
reuse bit: 0
trace: 0
valid: 0
********
sampler set details
set index: 1057
partial tag: 0000000000000000
lru: 0000
reuse bit: 0
trace: 0
valid: 0
********
sampler set details
set index: 1123
partial tag: 0000000000000000
lru: 0000
reuse bit: 0
trace: 0
valid: 0
********
sampler set details
set index: 2047
partial tag: 0000000000000000
lru: 0000
reuse bit: 0
trace: 0
valid: 0
********
sampler set details
set index: 1981
partial tag: 0000000000000000
lru: 0000
reuse bit: 0
trace: 0
valid: 0
********
sampler set details
set index: 1915
partial tag: 0000000000000000
lru: 0000
reuse bit: 0
trace: 0
valid: 0
********
sampler set details
set index: 792
partial tag: 0000000000000000
lru: 0000
reuse bit: 0
trace: 0
valid: 0
********
sampler set details
set index: 726
partial tag: 0000000110111110
lru: 0000
reuse bit: 1
trace: 706
valid: 1
********
sampler set details
set index: 660
partial tag: 0000000110111110
lru: 0000
reuse bit: 1
trace: 1236
valid: 1
********
sampler set details
set index: 1849
partial tag: 0000000000000000
lru: 0000
reuse bit: 0
trace: 0
valid: 0
********
sampler set details
set index: 594
partial tag: 0000000110111110
lru: 0000
reuse bit: 1
trace: 1878
valid: 1
********
sampler set details
set index: 1783
partial tag: 0000000000000000
lru: 0000
reuse bit: 0
trace: 0
valid: 0
********
sampler set details
set index: 528
partial tag: 0000000110111110
lru: 0000
reuse bit: 1
trace: 288
valid: 1
********
sampler set details
set index: 1717
partial tag: 0000000000000000
lru: 0000
reuse bit: 0
trace: 0
valid: 0
********
sampler set details
set index: 462
partial tag: 0000000000000000
lru: 0000
reuse bit: 0
trace: 0
valid: 0
********
sampler set details
set index: 1651
partial tag: 0000000110111110
lru: 0000
reuse bit: 1
trace: 1344
valid: 1
********
sampler set details
set index: 396
partial tag: 0000000000000000
lru: 0000
reuse bit: 0
trace: 0
valid: 0
********
sampler set details
set index: 1585
partial tag: 0000000000000000
lru: 0000
reuse bit: 0
trace: 0
valid: 0
********
sampler set details
set index: 330
partial tag: 0000000110111110
lru: 0000
reuse bit: 1
trace: 320
valid: 1
********
sampler set details
set index: 1519
partial tag: 0000000000000000
lru: 0000
reuse bit: 0
trace: 0
valid: 0
********
sampler set details
set index: 264
partial tag: 0000000110111110
lru: 0000
reuse bit: 1
trace: 566
valid: 1
********
sampler set details
set index: 1453
partial tag: 0000000110111110
lru: 0000
reuse bit: 1
trace: 1464
valid: 1
********
sampler set details
set index: 198
partial tag: 0000000110111110
lru: 0000
reuse bit: 1
trace: 189
valid: 1
********
sampler set details
set index: 1387
partial tag: 0000000000000000
lru: 0000
reuse bit: 0
trace: 0
valid: 0
********
sampler set details
set index: 132
partial tag: 0000000110111110
lru: 0000
reuse bit: 1
trace: 129
valid: 1
********
sampler set details
set index: 1321
partial tag: 0000000000000000
lru: 0000
reuse bit: 0
trace: 0
valid: 0
********
sampler set details
set index: 66
partial tag: 0000000000000000
lru: 0000
reuse bit: 0
trace: 0
valid: 0
********
sampler set details
set index: 1255
partial tag: 0000000110111110
lru: 0000
reuse bit: 1
trace: 1997
valid: 1
********
sampler set details
set index: 0
partial tag: 0000000110111110
lru: 0000
reuse bit: 1
trace: 818
valid: 1
********
sampler set details
set index: 1189
partial tag: 0000000000000000
lru: 0000
reuse bit: 0
trace: 0
valid: 0
********
sampler set details
set index: 858
partial tag: 0000000110111110
lru: 0000
reuse bit: 1
trace: 834
valid: 1
********
sampler set details
set index: 924
partial tag: 0000000000000000
lru: 0000
reuse bit: 0
trace: 0
valid: 0
********
sampler set details
set index: 990
partial tag: 0000000000000000
lru: 0000
reuse bit: 0
trace: 0
valid: 0
********
sampler set details
set index: 1057
partial tag: 0000000000000000
lru: 0000
reuse bit: 0
trace: 0
valid: 0
********
sampler set details
set index: 1123
partial tag: 0000000000000000
lru: 0000
reuse bit: 0
trace: 0
valid: 0
********
sampler set details
set index: 2047
partial tag: 0000000000000000
lru: 0000
reuse bit: 0
trace: 0
valid: 0
********
sampler set details
set index: 1981
partial tag: 0000000000000000
lru: 0000
reuse bit: 0
trace: 0
valid: 0
********
sampler set details
set index: 1915
partial tag: 0000000000000000
lru: 0000
reuse bit: 0
trace: 0
valid: 0
********
sampler set details
set index: 792
partial tag: 0000000000000000
lru: 0000
reuse bit: 0
trace: 0
valid: 0
********
sampler set details
set index: 726
partial tag: 0000000110111110
lru: 0000
reuse bit: 1
trace: 706
valid: 1
********
sampler set details
set index: 660
partial tag: 0000000110111110
lru: 0001
reuse bit: 1
trace: 1236
valid: 1
********
sampler set details
set index: 1849
partial tag: 0000000000000000
lru: 0000
reuse bit: 0
trace: 0
valid: 0
********
sampler set details
set index: 594
partial tag: 0000000110111110
lru: 0000
reuse bit: 1
trace: 1878
valid: 1
********
sampler set details
set index: 1783
partial tag: 0000000000000000
lru: 0000
reuse bit: 0
trace: 0
valid: 0
********
sampler set details
set index: 528
partial tag: 0000000110111110
lru: 0000
reuse bit: 1
trace: 288
valid: 1
********
sampler set details
set index: 1717
partial tag: 0000000000000000
lru: 0000
reuse bit: 0
trace: 0
valid: 0
********
sampler set details
set index: 462
partial tag: 0000000000000000
lru: 0000
reuse bit: 0
trace: 0
valid: 0
********
sampler set details
set index: 1651
partial tag: 0000000110111110
lru: 0000
reuse bit: 1
trace: 1344
valid: 1
********
sampler set details
set index: 396
partial tag: 0000000000000000
lru: 0000
reuse bit: 0
trace: 0
valid: 0
********
sampler set details
set index: 1585
partial tag: 0000000000000000
lru: 0000
reuse bit: 0
trace: 0
valid: 0
********
sampler set details
set index: 330
partial tag: 0000000110111110
lru: 0000
reuse bit: 1
trace: 320
valid: 1
********
sampler set details
set index: 1519
partial tag: 0000000000000000
lru: 0000
reuse bit: 0
trace: 0
valid: 0
********
sampler set details
set index: 264
partial tag: 0000000110111110
lru: 0000
reuse bit: 1
trace: 566
valid: 1
********
sampler set details
set index: 1453
partial tag: 0000000110111110
lru: 0000
reuse bit: 1
trace: 1464
valid: 1
********
sampler set details
set index: 198
partial tag: 0000000110111110
lru: 0000
reuse bit: 1
trace: 189
valid: 1
********
sampler set details
set index: 1387
partial tag: 0000000000000000
lru: 0000
reuse bit: 0
trace: 0
valid: 0
********
sampler set details
set index: 132
partial tag: 0000000110111110
lru: 0000
reuse bit: 1
trace: 129
valid: 1
********
sampler set details
set index: 1321
partial tag: 0000000000000000
lru: 0000
reuse bit: 0
trace: 0
valid: 0
********
sampler set details
set index: 66
partial tag: 0000000000000000
lru: 0000
reuse bit: 0
trace: 0
valid: 0
********
sampler set details
set index: 1255
partial tag: 0000000110111110
lru: 0000
reuse bit: 1
trace: 1997
valid: 1
********
sampler set details
set index: 0
partial tag: 0000000110111110
lru: 0000
reuse bit: 1
trace: 818
valid: 1
********
sampler set details
set index: 1189
partial tag: 0000000000000000
lru: 0000
reuse bit: 0
trace: 0
valid: 0
********
sampler set details
set index: 858
partial tag: 0000000110111110
lru: 0000
reuse bit: 1
trace: 834
valid: 1
********
sampler set details
set index: 924
partial tag: 0000000000000000
lru: 0000
reuse bit: 0
trace: 0
valid: 0
********
sampler set details
set index: 990
partial tag: 0000000000000000
lru: 0000
reuse bit: 0
trace: 0
valid: 0
********
sampler set details
set index: 1057
partial tag: 0000000000000000
lru: 0000
reuse bit: 0
trace: 0
valid: 0
********
sampler set details
set index: 1123
partial tag: 0000000000000000
lru: 0000
reuse bit: 0
trace: 0
valid: 0
********
sampler set details
set index: 2047
partial tag: 0000000000000000
lru: 0000
reuse bit: 0
trace: 0
valid: 0
********
sampler set details
set index: 1981
partial tag: 0000000000000000
lru: 0000
reuse bit: 0
trace: 0
valid: 0
********
sampler set details
set index: 1915
partial tag: 0000000000000000
lru: 0000
reuse bit: 0
trace: 0
valid: 0
********
sampler set details
set index: 792
partial tag: 0000000000000000
lru: 0000
reuse bit: 0
trace: 0
valid: 0
********
sampler set details
set index: 726
partial tag: 0000000110111110
lru: 0000
reuse bit: 1
trace: 706
valid: 1
********
sampler set details
set index: 660
partial tag: 0000000110111110
lru: 0001
reuse bit: 1
trace: 1236
valid: 1
********
sampler set details
set index: 1849
partial tag: 0000000000000000
lru: 0000
reuse bit: 0
trace: 0
valid: 0
********
sampler set details
set index: 594
partial tag: 0000000110111110
lru: 0000
reuse bit: 1
trace: 1878
valid: 1
********
sampler set details
set index: 1783
partial tag: 0000000000000000
lru: 0000
reuse bit: 0
trace: 0
valid: 0
********
sampler set details
set index: 528
partial tag: 0000000110111110
lru: 0000
reuse bit: 1
trace: 288
valid: 1
********
sampler set details
set index: 1717
partial tag: 0000000000000000
lru: 0000
reuse bit: 0
trace: 0
valid: 0
********
sampler set details
set index: 462
partial tag: 0000000000000000
lru: 0000
reuse bit: 0
trace: 0
valid: 0
********
sampler set details
set index: 1651
partial tag: 0000000110111110
lru: 0000
reuse bit: 1
trace: 1344
valid: 1
********
sampler set details
set index: 396
partial tag: 0000000000000000
lru: 0000
reuse bit: 0
trace: 0
valid: 0
********
sampler set details
set index: 1585
partial tag: 0000000000000000
lru: 0000
reuse bit: 0
trace: 0
valid: 0
********
sampler set details
set index: 330
partial tag: 0000000110111110
lru: 0000
reuse bit: 1
trace: 320
valid: 1
********
sampler set details
set index: 1519
partial tag: 0000000000000000
lru: 0000
reuse bit: 0
trace: 0
valid: 0
********
sampler set details
set index: 264
partial tag: 0000000110111110
lru: 0000
reuse bit: 1
trace: 566
valid: 1
********
sampler set details
set index: 1453
partial tag: 0000000110111110
lru: 0000
reuse bit: 1
trace: 1464
valid: 1
********
sampler set details
set index: 198
partial tag: 0000000110111110
lru: 0000
reuse bit: 1
trace: 189
valid: 1
********
sampler set details
set index: 1387
partial tag: 0000000000000000
lru: 0000
reuse bit: 0
trace: 0
valid: 0
********
sampler set details
set index: 132
partial tag: 0000000110111110
lru: 0000
reuse bit: 1
trace: 144
valid: 1
********
sampler set details
set index: 1321
partial tag: 0000000000000000
lru: 0000
reuse bit: 0
trace: 0
valid: 0
********
sampler set details
set index: 66
partial tag: 0000000000000000
lru: 0000
reuse bit: 0
trace: 0
valid: 0
********
sampler set details
set index: 1255
partial tag: 0000000110111110
lru: 0000
reuse bit: 1
trace: 1997
valid: 1
********
sampler set details
set index: 0
partial tag: 0000000110111110
lru: 0000
reuse bit: 1
trace: 818
valid: 1
********
sampler set details
set index: 1189
partial tag: 0000000000000000
lru: 0000
reuse bit: 0
trace: 0
valid: 0
********
sampler set details
set index: 858
partial tag: 0000000110111110
lru: 0000
reuse bit: 1
trace: 834
valid: 1
********
sampler set details
set index: 924
partial tag: 0000000000000000
lru: 0000
reuse bit: 0
trace: 0
valid: 0
********
sampler set details
set index: 990
partial tag: 0000000000000000
lru: 0000
reuse bit: 0
trace: 0
valid: 0
********
sampler set details
set index: 1057
partial tag: 0000000000000000
lru: 0000
reuse bit: 0
trace: 0
valid: 0
********
sampler set details
set index: 1123
partial tag: 0000000000000000
lru: 0000
reuse bit: 0
trace: 0
valid: 0
********
sampler set details
set index: 2047
partial tag: 0000000000000000
lru: 0000
reuse bit: 0
trace: 0
valid: 0
********
sampler set details
set index: 1981
partial tag: 0000000000000000
lru: 0000
reuse bit: 0
trace: 0
valid: 0
********
sampler set details
set index: 1915
partial tag: 0000000000000000
lru: 0000
reuse bit: 0
trace: 0
valid: 0
********
sampler set details
set index: 792
partial tag: 0000000000000000
lru: 0000
reuse bit: 0
trace: 0
valid: 0
********
sampler set details
set index: 726
partial tag: 0000000110111110
lru: 0000
reuse bit: 1
trace: 706
valid: 1
********
sampler set details
set index: 660
partial tag: 0000000110111110
lru: 0001
reuse bit: 1
trace: 1236
valid: 1
********
sampler set details
set index: 1849
partial tag: 0000000000000000
lru: 0000
reuse bit: 0
trace: 0
valid: 0
********
sampler set details
set index: 594
partial tag: 0000000110111110
lru: 0000
reuse bit: 1
trace: 1878
valid: 1
********
sampler set details
set index: 1783
partial tag: 0000000000000000
lru: 0000
reuse bit: 0
trace: 0
valid: 0
********
sampler set details
set index: 528
partial tag: 0000000110111110
lru: 0000
reuse bit: 1
trace: 288
valid: 1
********
sampler set details
set index: 1717
partial tag: 0000000000000000
lru: 0000
reuse bit: 0
trace: 0
valid: 0
********
sampler set details
set index: 462
partial tag: 0000000110111110
lru: 0000
reuse bit: 1
trace: 254
valid: 1
********
sampler set details
set index: 1651
partial tag: 0000000110111110
lru: 0000
reuse bit: 1
trace: 1344
valid: 1
********
sampler set details
set index: 396
partial tag: 0000000000000000
lru: 0000
reuse bit: 0
trace: 0
valid: 0
********
sampler set details
set index: 1585
partial tag: 0000000000000000
lru: 0000
reuse bit: 0
trace: 0
valid: 0
********
sampler set details
set index: 330
partial tag: 0000000110111110
lru: 0000
reuse bit: 1
trace: 320
valid: 1
********
sampler set details
set index: 1519
partial tag: 0000000000000000
lru: 0000
reuse bit: 0
trace: 0
valid: 0
********
sampler set details
set index: 264
partial tag: 0000000110111110
lru: 0000
reuse bit: 1
trace: 566
valid: 1
********
sampler set details
set index: 1453
partial tag: 0000000110111110
lru: 0000
reuse bit: 1
trace: 1464
valid: 1
********
sampler set details
set index: 198
partial tag: 0000000110111110
lru: 0000
reuse bit: 1
trace: 189
valid: 1
********
sampler set details
set index: 1387
partial tag: 0000000000000000
lru: 0000
reuse bit: 0
trace: 0
valid: 0
********
sampler set details
set index: 132
partial tag: 0000000110111110
lru: 0000
reuse bit: 1
trace: 144
valid: 1
********
sampler set details
set index: 1321
partial tag: 0000000000000000
lru: 0000
reuse bit: 0
trace: 0
valid: 0
********
sampler set details
set index: 66
partial tag: 0000000000000000
lru: 0000
reuse bit: 0
trace: 0
valid: 0
********
sampler set details
set index: 1255
partial tag: 0000000110111110
lru: 0000
reuse bit: 1
trace: 1997
valid: 1
********
sampler set details
set index: 0
partial tag: 0000000110111110
lru: 0000
reuse bit: 1
trace: 818
valid: 1
********
sampler set details
set index: 1189
partial tag: 0000000000000000
lru: 0000
reuse bit: 0
trace: 0
valid: 0
********
sampler set details
set index: 858
partial tag: 0000000110111110
lru: 0000
reuse bit: 1
trace: 834
valid: 1
********
sampler set details
set index: 924
partial tag: 0000000000000000
lru: 0000
reuse bit: 0
trace: 0
valid: 0
********
sampler set details
set index: 990
partial tag: 0000000000000000
lru: 0000
reuse bit: 0
trace: 0
valid: 0
********
sampler set details
set index: 1057
partial tag: 0000000000000000
lru: 0000
reuse bit: 0
trace: 0
valid: 0
********
sampler set details
set index: 1123
partial tag: 0000000000000000
lru: 0000
reuse bit: 0
trace: 0
valid: 0
********
sampler set details
set index: 2047
partial tag: 0000000000000000
lru: 0000
reuse bit: 0
trace: 0
valid: 0
********
sampler set details
set index: 1981
partial tag: 0000000000000000
lru: 0000
reuse bit: 0
trace: 0
valid: 0
********
sampler set details
set index: 1915
partial tag: 0000000000000000
lru: 0000
reuse bit: 0
trace: 0
valid: 0
********
sampler set details
set index: 792
partial tag: 0000000000000000
lru: 0000
reuse bit: 0
trace: 0
valid: 0
********
sampler set details
set index: 726
partial tag: 0000000110111110
lru: 0000
reuse bit: 1
trace: 706
valid: 1
********
sampler set details
set index: 660
partial tag: 0000000110111110
lru: 0001
reuse bit: 1
trace: 1236
valid: 1
********
sampler set details
set index: 1849
partial tag: 0000000000000000
lru: 0000
reuse bit: 0
trace: 0
valid: 0
********
sampler set details
set index: 594
partial tag: 0000000110111110
lru: 0000
reuse bit: 1
trace: 1878
valid: 1
********
sampler set details
set index: 1783
partial tag: 0000000000000000
lru: 0000
reuse bit: 0
trace: 0
valid: 0
********
sampler set details
set index: 528
partial tag: 0000000110111110
lru: 0000
reuse bit: 1
trace: 288
valid: 1
********
sampler set details
set index: 1717
partial tag: 0000000000000000
lru: 0000
reuse bit: 0
trace: 0
valid: 0
********
sampler set details
set index: 462
partial tag: 0000000110111110
lru: 0000
reuse bit: 1
trace: 254
valid: 1
********
sampler set details
set index: 1651
partial tag: 0000000110111110
lru: 0000
reuse bit: 1
trace: 1344
valid: 1
********
sampler set details
set index: 396
partial tag: 0000000000000000
lru: 0000
reuse bit: 0
trace: 0
valid: 0
********
sampler set details
set index: 1585
partial tag: 0000000111010011
lru: 0000
reuse bit: 1
trace: 1568
valid: 1
********
sampler set details
set index: 330
partial tag: 0000000110111110
lru: 0000
reuse bit: 1
trace: 320
valid: 1
********
sampler set details
set index: 1519
partial tag: 0000000000000000
lru: 0000
reuse bit: 0
trace: 0
valid: 0
********
sampler set details
set index: 264
partial tag: 0000000110111110
lru: 0000
reuse bit: 1
trace: 566
valid: 1
********
sampler set details
set index: 1453
partial tag: 0000000110111110
lru: 0000
reuse bit: 1
trace: 1464
valid: 1
********
sampler set details
set index: 198
partial tag: 0000000110111110
lru: 0000
reuse bit: 1
trace: 189
valid: 1
********
sampler set details
set index: 1387
partial tag: 0000000000000000
lru: 0000
reuse bit: 0
trace: 0
valid: 0
********
sampler set details
set index: 132
partial tag: 0000000110111110
lru: 0000
reuse bit: 1
trace: 144
valid: 1
********
sampler set details
set index: 1321
partial tag: 0000000000000000
lru: 0000
reuse bit: 0
trace: 0
valid: 0
********
sampler set details
set index: 66
partial tag: 0000000000000000
lru: 0000
reuse bit: 0
trace: 0
valid: 0
********
sampler set details
set index: 1255
partial tag: 0000000110111110
lru: 0000
reuse bit: 1
trace: 1997
valid: 1
********
sampler set details
set index: 0
partial tag: 0000000110111110
lru: 0000
reuse bit: 1
trace: 818
valid: 1
********
sampler set details
set index: 1189
partial tag: 0000000000000000
lru: 0000
reuse bit: 0
trace: 0
valid: 0
********
sampler set details
set index: 858
partial tag: 0000000110111110
lru: 0000
reuse bit: 1
trace: 834
valid: 1
********
sampler set details
set index: 924
partial tag: 0000000000000000
lru: 0000
reuse bit: 0
trace: 0
valid: 0
********
sampler set details
set index: 990
partial tag: 0000000000000000
lru: 0000
reuse bit: 0
trace: 0
valid: 0
********
sampler set details
set index: 1057
partial tag: 0000000000000000
lru: 0000
reuse bit: 0
trace: 0
valid: 0
********
sampler set details
set index: 1123
partial tag: 0000000000000000
lru: 0000
reuse bit: 0
trace: 0
valid: 0
********
sampler set details
set index: 2047
partial tag: 0000000000000000
lru: 0000
reuse bit: 0
trace: 0
valid: 0
********
sampler set details
set index: 1981
partial tag: 0000000000000000
lru: 0000
reuse bit: 0
trace: 0
valid: 0
********
sampler set details
set index: 1915
partial tag: 0000000000000000
lru: 0000
reuse bit: 0
trace: 0
valid: 0
********
sampler set details
set index: 792
partial tag: 0000000000000000
lru: 0000
reuse bit: 0
trace: 0
valid: 0
********
sampler set details
set index: 726
partial tag: 0000000110111110
lru: 0000
reuse bit: 1
trace: 706
valid: 1
********
sampler set details
set index: 660
partial tag: 0000000110111110
lru: 0000
reuse bit: 1
trace: 1060
valid: 1
********
sampler set details
set index: 1849
partial tag: 0000000000000000
lru: 0000
reuse bit: 0
trace: 0
valid: 0
********
sampler set details
set index: 594
partial tag: 0000000110111110
lru: 0000
reuse bit: 1
trace: 1878
valid: 1
********
sampler set details
set index: 1783
partial tag: 0000000000000000
lru: 0000
reuse bit: 0
trace: 0
valid: 0
********
sampler set details
set index: 528
partial tag: 0000000110111110
lru: 0000
reuse bit: 1
trace: 288
valid: 1
********
sampler set details
set index: 1717
partial tag: 0000000000000000
lru: 0000
reuse bit: 0
trace: 0
valid: 0
********
sampler set details
set index: 462
partial tag: 0000000110111110
lru: 0000
reuse bit: 1
trace: 254
valid: 1
********
sampler set details
set index: 1651
partial tag: 0000000110111110
lru: 0000
reuse bit: 1
trace: 1344
valid: 1
********
sampler set details
set index: 396
partial tag: 0000000000000000
lru: 0000
reuse bit: 0
trace: 0
valid: 0
********
sampler set details
set index: 1585
partial tag: 0000000111010011
lru: 0000
reuse bit: 1
trace: 1568
valid: 1
********
sampler set details
set index: 330
partial tag: 0000000110111110
lru: 0000
reuse bit: 1
trace: 320
valid: 1
********
sampler set details
set index: 1519
partial tag: 0000000000000000
lru: 0000
reuse bit: 0
trace: 0
valid: 0
********
sampler set details
set index: 264
partial tag: 0000000110111110
lru: 0000
reuse bit: 1
trace: 566
valid: 1
********
sampler set details
set index: 1453
partial tag: 0000000110111110
lru: 0000
reuse bit: 1
trace: 1464
valid: 1
********
sampler set details
set index: 198
partial tag: 0000000110111110
lru: 0000
reuse bit: 1
trace: 189
valid: 1
********
sampler set details
set index: 1387
partial tag: 0000000000000000
lru: 0000
reuse bit: 0
trace: 0
valid: 0
********
sampler set details
set index: 132
partial tag: 0000000110111110
lru: 0000
reuse bit: 1
trace: 144
valid: 1
********
sampler set details
set index: 1321
partial tag: 0000000000000000
lru: 0000
reuse bit: 0
trace: 0
valid: 0
********
sampler set details
set index: 66
partial tag: 0000000000000000
lru: 0000
reuse bit: 0
trace: 0
valid: 0
********
sampler set details
set index: 1255
partial tag: 0000000110111110
lru: 0000
reuse bit: 1
trace: 1997
valid: 1
********
sampler set details
set index: 0
partial tag: 0000000110111110
lru: 0000
reuse bit: 1
trace: 818
valid: 1
********
sampler set details
set index: 1189
partial tag: 0000000000000000
lru: 0000
reuse bit: 0
trace: 0
valid: 0
********
sampler set details
set index: 858
partial tag: 0000000110111110
lru: 0000
reuse bit: 1
trace: 834
valid: 1
********
sampler set details
set index: 924
partial tag: 0000000000000000
lru: 0000
reuse bit: 0
trace: 0
valid: 0
********
sampler set details
set index: 990
partial tag: 0000000000000000
lru: 0000
reuse bit: 0
trace: 0
valid: 0
********
sampler set details
set index: 1057
partial tag: 0000000000000000
lru: 0000
reuse bit: 0
trace: 0
valid: 0
********
sampler set details
set index: 1123
partial tag: 0000000000000000
lru: 0000
reuse bit: 0
trace: 0
valid: 0
********
sampler set details
set index: 2047
partial tag: 0000000000000000
lru: 0000
reuse bit: 0
trace: 0
valid: 0
********
sampler set details
set index: 1981
partial tag: 0000000000000000
lru: 0000
reuse bit: 0
trace: 0
valid: 0
********
sampler set details
set index: 1915
partial tag: 0000000000000000
lru: 0000
reuse bit: 0
trace: 0
valid: 0
********
sampler set details
set index: 792
partial tag: 0000000000000000
lru: 0000
reuse bit: 0
trace: 0
valid: 0
********
sampler set details
set index: 726
partial tag: 0000000110111110
lru: 0000
reuse bit: 1
trace: 706
valid: 1
********
sampler set details
set index: 660
partial tag: 0000000110111110
lru: 0000
reuse bit: 1
trace: 1060
valid: 1
********
sampler set details
set index: 1849
partial tag: 0000000000000000
lru: 0000
reuse bit: 0
trace: 0
valid: 0
********
sampler set details
set index: 594
partial tag: 0000000110111110
lru: 0000
reuse bit: 1
trace: 1878
valid: 1
********
sampler set details
set index: 1783
partial tag: 0000000000000000
lru: 0000
reuse bit: 0
trace: 0
valid: 0
********
sampler set details
set index: 528
partial tag: 0000000110111110
lru: 0000
reuse bit: 1
trace: 288
valid: 1
********
sampler set details
set index: 1717
partial tag: 0000000000000000
lru: 0000
reuse bit: 0
trace: 0
valid: 0
********
sampler set details
set index: 462
partial tag: 0000000110111110
lru: 0000
reuse bit: 1
trace: 254
valid: 1
********
sampler set details
set index: 1651
partial tag: 0000000110111110
lru: 0000
reuse bit: 1
trace: 1344
valid: 1
********
sampler set details
set index: 396
partial tag: 0000000000000000
lru: 0000
reuse bit: 0
trace: 0
valid: 0
********
sampler set details
set index: 1585
partial tag: 0000000111010011
[...]
********
sampler set details
set index: 0
partial tag: 0000000110111110
lru: 0010
reuse bit: 1
trace: 818
valid: 1
********
sampler set details
set index: 1189
partial tag: 0000000111010100
lru: 0000
reuse bit: 1
trace: 1896
valid: 1
********
sampler set details
set index: 858
partial tag: 0000000110111110
lru: 0011
reuse bit: 1
trace: 96
valid: 1
********
sampler set details
set index: 924
partial tag: 0000000111010100
lru: 0001
reuse bit: 1
trace: 1896
valid: 1
********
sampler set details
set index: 990
partial tag: 0000000111010100
lru: 0001
reuse bit: 1
trace: 1896
valid: 1
********
sampler set details
set index: 1057
partial tag: 0000000111010100
lru: 0000
reuse bit: 1
trace: 1896
valid: 1
********
sampler set details
set index: 1123
partial tag: 0000000111010011
lru: 0001
reuse bit: 1
trace: 1431
valid: 1
********
sampler set details
set index: 2047
partial tag: 0000000111010011
lru: 0010
reuse bit: 1
trace: 1896
valid: 1
********
sampler set details
set index: 1981
partial tag: 0000000111010011
lru: 0001
reuse bit: 1
trace: 401
valid: 1
********
sampler set details
set index: 1915
partial tag: 0000000111010011
lru: 0001
reuse bit: 1
trace: 1896
valid: 1
********
sampler set details
set index: 792
partial tag: 0000000111010011
lru: 0010
reuse bit: 1
trace: 33
valid: 1
********
sampler set details
set index: 726
partial tag: 0000000110111110
lru: 0001
reuse bit: 1
trace: 706
valid: 1
********
sampler set details
set index: 660
partial tag: 0000000110111110
lru: 0010
reuse bit: 1
trace: 1060
valid: 1
********
sampler set details
set index: 1849
partial tag: 0000000111010100
lru: 0000
reuse bit: 1
trace: 1533
valid: 1
********
sampler set details
set index: 594
partial tag: 0000000110111110
lru: 0010
reuse bit: 1
trace: 1878
valid: 1
********
sampler set details
set index: 1783
partial tag: 0000000111010100
lru: 0000
reuse bit: 1
trace: 1915
valid: 1
********
sampler set details
set index: 528
partial tag: 0000000110111110
lru: 0010
reuse bit: 1
trace: 288
valid: 1
********
sampler set details
set index: 1717
partial tag: 0000000111010100
lru: 0000
reuse bit: 1
trace: 1896
valid: 1
********
sampler set details
set index: 462
partial tag: 0000000110111110
lru: 0010
reuse bit: 1
trace: 254
valid: 1
********
sampler set details
set index: 1651
partial tag: 0000000110111110
lru: 0001
reuse bit: 1
trace: 1344
valid: 1
********
sampler set details
set index: 396
partial tag: 0000000111010100
lru: 0001
reuse bit: 1
trace: 1896
valid: 1
********
sampler set details
set index: 1585
partial tag: 0000000111010011
lru: 0001
reuse bit: 1
trace: 1568
valid: 1
********
sampler set details
set index: 330
partial tag: 0000000110111110
lru: 0010
reuse bit: 1
trace: 320
valid: 1
********
sampler set details
set index: 1519
partial tag: 0000000111010100
lru: 0000
reuse bit: 1
trace: 1896
valid: 1
********
sampler set details
set index: 264
partial tag: 0000000110111110
lru: 0011
reuse bit: 1
trace: 566
valid: 1
********
sampler set details
set index: 1453
partial tag: 0000000110111110
lru: 0001
reuse bit: 1
trace: 1464
valid: 1
********
sampler set details
set index: 198
partial tag: 0000000110111110
lru: 0010
reuse bit: 1
trace: 992
valid: 1
********
sampler set details
set index: 1387
partial tag: 0000000111010011
lru: 0001
reuse bit: 1
trace: 1392
valid: 1
********
sampler set details
set index: 132
partial tag: 0000000110111110
lru: 0010
reuse bit: 1
trace: 144
valid: 1
********
sampler set details
set index: 1321
partial tag: 0000000111010011
lru: 0001
reuse bit: 1
trace: 1896
valid: 1
********
sampler set details
set index: 66
partial tag: 0000000111010100
lru: 0001
reuse bit: 1
trace: 1533
valid: 1
********
sampler set details
set index: 1255
partial tag: 0000000110111110
lru: 0010
reuse bit: 1
trace: 1997
valid: 1
********
sampler set details
set index: 0
partial tag: 0000000110111110
lru: 0010
reuse bit: 1
trace: 818
valid: 1
********
sampler set details
set index: 1189
partial tag: 0000000111010100
lru: 0000
reuse bit: 1
trace: 1896
valid: 1
********
sampler set details
set index: 858
partial tag: 0000000110111110
lru: 0011
reuse bit: 1
trace: 96
valid: 1
********
sampler set details
set index: 924
partial tag: 0000000111010100
lru: 0001
reuse bit: 1
trace: 1896
valid: 1
********
sampler set details
set index: 990
partial tag: 0000000111010100
lru: 0001
reuse bit: 1
trace: 1896
valid: 1
********
sampler set details
set index: 1057
partial tag: 0000000111010100
lru: 0001
reuse bit: 1
trace: 1896
valid: 1
********
sampler set details
set index: 1123
partial tag: 0000000111010011
lru: 0001
reuse bit: 1
trace: 1431
valid: 1
********
Heartbeat CPU 0 instructions: 10000001 cycles: 23686770 heartbeat IPC: 0.422177 cumulative IPC: 0.390072 (Simulation time: 0 hr 0 min 22 sec) 
sampler set details
set index: 2047
partial tag: 0000000111010011
lru: 0010
reuse bit: 1
trace: 1896
valid: 1
********
sampler set details
set index: 1981
partial tag: 0000000111010011
lru: 0001
reuse bit: 1
trace: 401
valid: 1
********
sampler set details
set index: 1915
partial tag: 0000000111010011
lru: 0001
reuse bit: 1
trace: 1896
valid: 1
********
sampler set details
set index: 792
partial tag: 0000000111010011
lru: 0010
reuse bit: 1
trace: 33
valid: 1
********
sampler set details
set index: 726
partial tag: 0000000110111110
lru: 0001
reuse bit: 1
trace: 706
valid: 1
********
sampler set details
set index: 660
partial tag: 0000000110111110
lru: 0010
reuse bit: 1
trace: 1060
valid: 1
********
sampler set details
set index: 1849
partial tag: 0000000111010100
lru: 0000
reuse bit: 1
trace: 1533
valid: 1
********
sampler set details
set index: 594
partial tag: 0000000110111110
lru: 0010
reuse bit: 1
trace: 1878
valid: 1
********
sampler set details
set index: 1783
partial tag: 0000000111010100
lru: 0000
reuse bit: 1
trace: 1915
valid: 1
********
sampler set details
set index: 528
partial tag: 0000000110111110
lru: 0010
reuse bit: 1
trace: 288
valid: 1
********
sampler set details
set index: 1717
partial tag: 0000000111010100
lru: 0000
reuse bit: 1
trace: 1896
valid: 1
********
sampler set details
set index: 462
partial tag: 0000000110111110
lru: 0010
reuse bit: 1
trace: 254
valid: 1
********
sampler set details
set index: 1651
partial tag: 0000000110111110
lru: 0001
reuse bit: 1
trace: 1344
valid: 1
********
sampler set details
set index: 396
partial tag: 0000000111010100
lru: 0001
reuse bit: 1
trace: 1896
valid: 1
********
sampler set details
set index: 1585
partial tag: 0000000111010011
lru: 0001
reuse bit: 1
trace: 1568
valid: 1
********
sampler set details
set index: 330
partial tag: 0000000110111110
lru: 0010
reuse bit: 1
trace: 320
valid: 1
********
sampler set details
set index: 1519
partial tag: 0000000111010100
lru: 0000
reuse bit: 1
trace: 1896
valid: 1
********
sampler set details
set index: 264
partial tag: 0000000110111110
lru: 0011
reuse bit: 1
trace: 566
valid: 1
********
sampler set details
set index: 1453
partial tag: 0000000110111110
lru: 0001
reuse bit: 1
trace: 1464
valid: 1
********
sampler set details
set index: 198
partial tag: 0000000110111110
lru: 0010
reuse bit: 1
trace: 992
valid: 1
********
sampler set details
set index: 1387
partial tag: 0000000111010011
lru: 0001
reuse bit: 1
trace: 1392
valid: 1
********
sampler set details
set index: 132
partial tag: 0000000110111110
lru: 0010
reuse bit: 1
trace: 144
valid: 1
********
sampler set details
set index: 1321
partial tag: 0000000111010011
lru: 0001
reuse bit: 1
trace: 1896
valid: 1
********
sampler set details
set index: 66
partial tag: 0000000111010100
lru: 0001
reuse bit: 1
trace: 1533
valid: 1
********
sampler set details
set index: 1255
partial tag: 0000000110111110
lru: 0010
reuse bit: 1
trace: 1997
valid: 1
********
sampler set details
set index: 0
partial tag: 0000000110111110
lru: 0010
reuse bit: 1
trace: 818
valid: 1
********
sampler set details
set index: 1189
partial tag: 0000000111010100
lru: 0000
reuse bit: 1
trace: 1896
valid: 1
********
sampler set details
set index: 858
partial tag: 0000000110111110
lru: 0011
reuse bit: 1
trace: 96
valid: 1
********
sampler set details
set index: 924
partial tag: 0000000111010100
lru: 0001
reuse bit: 1
trace: 1896
valid: 1
********
sampler set details
set index: 990
partial tag: 0000000111010100
lru: 0001
reuse bit: 1
trace: 1896
valid: 1
********
sampler set details
set index: 1057
partial tag: 0000000111010100
lru: 0001
reuse bit: 1
trace: 1896
valid: 1
********
sampler set details
set index: 1123
partial tag: 0000000111010011
lru: 0010
reuse bit: 1
trace: 1431
valid: 1
********
sampler set details
set index: 2047
partial tag: 0000000111010011
lru: 0010
reuse bit: 1
trace: 1896
valid: 1
********
sampler set details
set index: 1981
partial tag: 0000000111010011
lru: 0001
reuse bit: 1
trace: 401
valid: 1
********
sampler set details
set index: 1915
partial tag: 0000000111010011
lru: 0001
reuse bit: 1
trace: 1896
valid: 1
********
sampler set details
set index: 792
partial tag: 0000000111010011
lru: 0010
reuse bit: 1
trace: 33
valid: 1
********
sampler set details
set index: 726
partial tag: 0000000110111110
lru: 0001
reuse bit: 1
trace: 706
valid: 1
********
sampler set details
set index: 660
partial tag: 0000000110111110
lru: 0010
reuse bit: 1
trace: 1060
valid: 1
********
sampler set details
set index: 1849
partial tag: 0000000111010100
lru: 0000
reuse bit: 1
trace: 1533
valid: 1
********
sampler set details
set index: 594
partial tag: 0000000110111110
lru: 0010
reuse bit: 1
trace: 1878
valid: 1
********
sampler set details
set index: 1783
partial tag: 0000000111010100
lru: 0000
reuse bit: 1
trace: 1915
valid: 1
********
sampler set details
set index: 528
partial tag: 0000000110111110
lru: 0010
reuse bit: 1
trace: 288
valid: 1
********
sampler set details
set index: 1717
partial tag: 0000000111010100
lru: 0000
reuse bit: 1
trace: 1896
valid: 1
********
sampler set details
set index: 462
partial tag: 0000000110111110
lru: 0010
reuse bit: 1
trace: 254
valid: 1
********
sampler set details
set index: 1651
partial tag: 0000000110111110
lru: 0001
reuse bit: 1
trace: 1344
valid: 1
********
sampler set details
set index: 396
partial tag: 0000000111010100
lru: 0001
reuse bit: 1
trace: 1896
valid: 1
********
sampler set details
set index: 1585
partial tag: 0000000111010011
lru: 0001
reuse bit: 1
trace: 1568
valid: 1
********
sampler set details
set index: 330
partial tag: 0000000110111110
lru: 0010
reuse bit: 1
trace: 320
valid: 1
********
sampler set details
set index: 1519
partial tag: 0000000111010100
lru: 0000
reuse bit: 1
trace: 1896
valid: 1
********
sampler set details
set index: 264
partial tag: 0000000110111110
lru: 0011
reuse bit: 1
trace: 566
valid: 1
********
sampler set details
set index: 1453
partial tag: 0000000110111110
lru: 0001
reuse bit: 1
trace: 1464
valid: 1
********
sampler set details
set index: 198
partial tag: 0000000110111110
lru: 0010
reuse bit: 1
trace: 992
valid: 1
********
sampler set details
set index: 1387
partial tag: 0000000111010011
lru: 0001
reuse bit: 1
trace: 1392
valid: 1
********
sampler set details
set index: 132
partial tag: 0000000110111110
lru: 0010
reuse bit: 1
trace: 144
valid: 1
********
sampler set details
set index: 1321
partial tag: 0000000111010011
lru: 0001
reuse bit: 1
trace: 1896
valid: 1
********
sampler set details
set index: 66
partial tag: 0000000111010100
lru: 0001
reuse bit: 1
trace: 1533
valid: 1
********
sampler set details
set index: 1255
partial tag: 0000000110111110
lru: 0010
reuse bit: 1
trace: 1997
valid: 1
********
sampler set details
set index: 0
partial tag: 0000000110111110
lru: 0010
reuse bit: 1
trace: 818
valid: 1
********
sampler set details
set index: 1189
partial tag: 0000000111010100
lru: 0001
reuse bit: 1
trace: 1896
valid: 1
********
sampler set details
set index: 858
partial tag: 0000000110111110
lru: 0011
reuse bit: 1
trace: 96
valid: 1
********
sampler set details
set index: 924
partial tag: 0000000111010100
lru: 0001
reuse bit: 1
trace: 1896
valid: 1
********
sampler set details
set index: 990
partial tag: 0000000111010100
lru: 0001
reuse bit: 1
trace: 1896
valid: 1
********
sampler set details
set index: 1057
partial tag: 0000000111010100
lru: 0001
reuse bit: 1
trace: 1896
valid: 1
********
sampler set details
set index: 1123
partial tag: 0000000111010011
lru: 0010
reuse bit: 1
trace: 1431
valid: 1
********
sampler set details
set index: 2047
partial tag: 0000000111010011
lru: 0010
reuse bit: 1
trace: 1896
valid: 1
********
sampler set details
set index: 1981
partial tag: 0000000111010011
lru: 0001
reuse bit: 1
trace: 401
valid: 1
********
sampler set details
set index: 1915
partial tag: 0000000111010011
lru: 0001
reuse bit: 1
trace: 1896
valid: 1
********
sampler set details
set index: 792
partial tag: 0000000111010011
lru: 0010
reuse bit: 1
trace: 33
valid: 1
********
sampler set details
set index: 726
partial tag: 0000000110111110
lru: 0001
reuse bit: 1
trace: 706
valid: 1
********
sampler set details
set index: 660
partial tag: 0000000110111110
lru: 0010
reuse bit: 1
trace: 1060
valid: 1
********
sampler set details
set index: 1849
partial tag: 0000000111010100
lru: 0000
reuse bit: 1
trace: 1533
valid: 1
********
sampler set details
set index: 594
partial tag: 0000000110111110
lru: 0010
reuse bit: 1
trace: 1878
valid: 1
********
sampler set details
set index: 1783
partial tag: 0000000111010100
lru: 0000
reuse bit: 1
trace: 1915
valid: 1
********
sampler set details
set index: 528
partial tag: 0000000110111110
lru: 0010
reuse bit: 1
trace: 288
valid: 1
********
sampler set details
set index: 1717
partial tag: 0000000111010100
lru: 0000
reuse bit: 1
trace: 1896
valid: 1
********
sampler set details
set index: 462
partial tag: 0000000110111110
lru: 0010
reuse bit: 1
trace: 254
valid: 1
********
sampler set details
set index: 1651
partial tag: 0000000110111110
lru: 0001
reuse bit: 1
trace: 1344
valid: 1
********
sampler set details
set index: 396
partial tag: 0000000111010100
lru: 0001
reuse bit: 1
trace: 1896
valid: 1
********
sampler set details
set index: 1585
partial tag: 0000000111010011
lru: 0001
reuse bit: 1
trace: 1568
valid: 1
********
sampler set details
set index: 330
partial tag: 0000000110111110
lru: 0010
reuse bit: 1
trace: 320
valid: 1
********
sampler set details
set index: 1519
partial tag: 0000000111010100
lru: 0000
reuse bit: 1
trace: 1896
valid: 1
********
sampler set details
set index: 264
partial tag: 0000000110111110
lru: 0011
reuse bit: 1
trace: 566
valid: 1
********
sampler set details
set index: 1453
partial tag: 0000000110111110
lru: 0001
reuse bit: 1
trace: 1464
valid: 1
********
sampler set details
set index: 198
partial tag: 0000000110111110
lru: 0010
reuse bit: 1
trace: 992
valid: 1
********
sampler set details
set index: 1387
partial tag: 0000000111010011
lru: 0001
reuse bit: 1
trace: 1392
valid: 1
********
sampler set details
set index: 132
partial tag: 0000000110111110
lru: 0010
reuse bit: 1
trace: 144
valid: 1
********
sampler set details
set index: 1321
partial tag: 0000000111010011
lru: 0001
reuse bit: 1
trace: 1896
valid: 1
********
sampler set details
set index: 66
partial tag: 0000000111010100
lru: 0001
reuse bit: 1
trace: 1533
valid: 1
********
sampler set details
set index: 1255
partial tag: 0000000110111110
lru: 0011
reuse bit: 1
trace: 1997
valid: 1
********
sampler set details
set index: 0
partial tag: 0000000110111110
lru: 0010
reuse bit: 1
trace: 818
valid: 1
********
sampler set details
set index: 1189
partial tag: 0000000111010100
lru: 0001
reuse bit: 1
trace: 1896
valid: 1
********
sampler set details
set index: 858
partial tag: 0000000110111110
lru: 0011
reuse bit: 1
trace: 96
valid: 1
********
sampler set details
set index: 924
partial tag: 0000000111010100
lru: 0001
reuse bit: 1
trace: 1896
valid: 1
********
sampler set details
set index: 990
partial tag: 0000000111010100
lru: 0001
reuse bit: 1
trace: 1896
valid: 1
********
sampler set details
set index: 1057
partial tag: 0000000111010100
lru: 0001
reuse bit: 1
trace: 1896
valid: 1
********
sampler set details
set index: 1123
partial tag: 0000000111010011
lru: 0010
reuse bit: 1
trace: 1431
valid: 1
********
Finished CPU 0 instructions: 10000000 cycles: 25636027 cumulative IPC: 0.390076 (Simulation time: 0 hr 0 min 25 sec) 

CPU 0 Branch Prediction Accuracy: 99.5963% MPKI: 0.6138

ChampSim completed all CPUs

Region of Interest Statistics

CPU 0 cumulative IPC: 0.390076 instructions: 10000000 cycles: 25636027
L1D TOTAL     ACCESS:    4086597  HIT:    4084695  MISS:       1902
L1D LOAD      ACCESS:    2179983  HIT:    2179603  MISS:        380
L1D RFO       ACCESS:    1906614  HIT:    1905092  MISS:       1522
L1D PREFETCH  ACCESS:          0  HIT:          0  MISS:          0
L1D WRITEBACK ACCESS:          0  HIT:          0  MISS:          0
L1D PREFETCH  REQUESTED:          0  ISSUED:          0  FILLED:          0  USEFUL:          0  USELESS:          0
L1I TOTAL     ACCESS:    4061648  HIT:    4061648  MISS:          0
L1I LOAD      ACCESS:    4061648  HIT:    4061648  MISS:          0
L1I RFO       ACCESS:          0  HIT:          0  MISS:          0
L1I PREFETCH  ACCESS:          0  HIT:          0  MISS:          0
L1I WRITEBACK ACCESS:          0  HIT:          0  MISS:          0
L1I PREFETCH  REQUESTED:          0  ISSUED:          0  FILLED:          0  USEFUL:          0  USELESS:          0
L2C TOTAL     ACCESS:       3797  HIT:       1895  MISS:       1902
L2C LOAD      ACCESS:        380  HIT:          0  MISS:        380
L2C RFO       ACCESS:       1522  HIT:          0  MISS:       1522
L2C PREFETCH  ACCESS:          0  HIT:          0  MISS:          0
L2C WRITEBACK ACCESS:       1895  HIT:       1895  MISS:          0
L2C PREFETCH  REQUESTED:          0  ISSUED:          0  FILLED:          0  USEFUL:          0  USELESS:          0
LLC TOTAL     ACCESS:       2513  HIT:        611  MISS:       1902
LLC LOAD      ACCESS:        380  HIT:          0  MISS:        380
LLC RFO       ACCESS:       1522  HIT:          0  MISS:       1522
LLC PREFETCH  ACCESS:          0  HIT:          0  MISS:          0
LLC WRITEBACK ACCESS:        611  HIT:        611  MISS:          0
LLC PREFETCH  REQUESTED:          0  ISSUED:          0  FILLED:          0  USEFUL:          0  USELESS:          0
DTLB TOTAL     ACCESS:    3637574  HIT:    3637545  MISS:         29
DTLB LOAD      ACCESS:    2059157  HIT:    2059151  MISS:          6
DTLB RFO       ACCESS:    1578417  HIT:    1578394  MISS:         23
DTLB PREFETCH  ACCESS:          0  HIT:          0  MISS:          0
DTLB WRITEBACK ACCESS:          0  HIT:          0  MISS:          0
DTLB PREFETCH  REQUESTED:          0  ISSUED:          0  FILLED:          0  USEFUL:          0  USELESS:          0
ITLB TOTAL     ACCESS:    3628594  HIT:    3628594  MISS:          0
ITLB LOAD      ACCESS:    3628594  HIT:    3628594  MISS:          0
ITLB RFO       ACCESS:          0  HIT:          0  MISS:          0
ITLB PREFETCH  ACCESS:          0  HIT:          0  MISS:          0
ITLB WRITEBACK ACCESS:          0  HIT:          0  MISS:          0
ITLB PREFETCH  REQUESTED:          0  ISSUED:          0  FILLED:          0  USEFUL:          0  USELESS:          0
STLB TOTAL     ACCESS:         29  HIT:          0  MISS:         29
STLB LOAD      ACCESS:          6  HIT:          0  MISS:          6
STLB RFO       ACCESS:         23  HIT:          0  MISS:         23
STLB PREFETCH  ACCESS:          0  HIT:          0  MISS:          0
STLB WRITEBACK ACCESS:          0  HIT:          0  MISS:          0
STLB PREFETCH  REQUESTED:          0  ISSUED:          0  FILLED:          0  USEFUL:          0  USELESS:          0
Major fault: 0 Minor fault: 216

Invalid block evictions: 5643
DBP Decisions: 0
Mockingjay Decisions: 0
Writeback MKJ Decisions: 0

DB Predictions in [0,9]: 
0 5723
3 10
9 6


DRAM Statistics
 CHANNEL 0
 RQ ROW_BUFFER_HIT:       1830  ROW_BUFFER_MISS:         72
 DBUS_CONGESTED:          0
 WQ ROW_BUFFER_HIT:          0  ROW_BUFFER_MISS:          0  FULL:          0

 AVG_CONGESTED_CYCLE: 0
