
*** ChampSim Multicore Out-of-Order Simulator ***

Warmup Instructions: 1000000
Simulation Instructions: 10000000
Number of CPUs: 1
LLC sets: 2048
LLC ways: 16
Off-chip DRAM Size: 4096 MB Channels: 1 Width: 64-bit Data Rate: 1600 MT/s

CPU 0 runs ./tracefiles/hmmer_546B.trace.xz
CPU 0 Bimodal branch predictor

Warmup complete CPU 0 instructions: 1000003 cycles: 622148 (Simulation time: 0 hr 0 min 1 sec) 

Heartbeat CPU 0 instructions: 10000003 cycles: 8722589 heartbeat IPC: 1.14645 cumulative IPC: 1.11105 (Simulation time: 0 hr 0 min 16 sec) 
Finished CPU 0 instructions: 10000003 cycles: 9005506 cumulative IPC: 1.11043 (Simulation time: 0 hr 0 min 18 sec) 

CPU 0 Branch Prediction Accuracy: 99.2155% MPKI: 0.3031

ChampSim completed all CPUs

Region of Interest Statistics

CPU 0 cumulative IPC: 1.11043 instructions: 10000003 cycles: 9005506
L1D TOTAL     ACCESS:    4160501  HIT:    4104226  MISS:      56275
L1D LOAD      ACCESS:    3266071  HIT:    3240763  MISS:      25308
L1D RFO       ACCESS:     894430  HIT:     863463  MISS:      30967
L1D PREFETCH  ACCESS:          0  HIT:          0  MISS:          0
L1D WRITEBACK ACCESS:          0  HIT:          0  MISS:          0
L1D PREFETCH  REQUESTED:          0  ISSUED:          0  FILLED:          0  USEFUL:          0  USELESS:          0
L1I TOTAL     ACCESS:    2637406  HIT:    2637334  MISS:         72
L1I LOAD      ACCESS:    2637406  HIT:    2637334  MISS:         72
L1I RFO       ACCESS:          0  HIT:          0  MISS:          0
L1I PREFETCH  ACCESS:          0  HIT:          0  MISS:          0
L1I WRITEBACK ACCESS:          0  HIT:          0  MISS:          0
L1I PREFETCH  REQUESTED:          0  ISSUED:          0  FILLED:          0  USEFUL:          0  USELESS:          0
L2C TOTAL     ACCESS:      87535  HIT:      53581  MISS:      33954
L2C LOAD      ACCESS:      25373  HIT:      22144  MISS:       3229
L2C RFO       ACCESS:      30967  HIT:        254  MISS:      30713
L2C PREFETCH  ACCESS:          0  HIT:          0  MISS:          0
L2C WRITEBACK ACCESS:      31195  HIT:      31183  MISS:         12
L2C PREFETCH  REQUESTED:          0  ISSUED:          0  FILLED:          0  USEFUL:          0  USELESS:          0
LLC TOTAL     ACCESS:      64805  HIT:      57055  MISS:       7750
LLC LOAD      ACCESS:       3229  HIT:       3054  MISS:        175
LLC RFO       ACCESS:      30713  HIT:      23138  MISS:       7575
LLC PREFETCH  ACCESS:          0  HIT:          0  MISS:          0
LLC WRITEBACK ACCESS:      30863  HIT:      30863  MISS:          0
LLC PREFETCH  REQUESTED:          0  ISSUED:          0  FILLED:          0  USEFUL:          0  USELESS:          0
DTLB TOTAL     ACCESS:    4316866  HIT:    4315986  MISS:        880
DTLB LOAD      ACCESS:    3176954  HIT:    3176554  MISS:        400
DTLB RFO       ACCESS:    1139912  HIT:    1139432  MISS:        480
DTLB PREFETCH  ACCESS:          0  HIT:          0  MISS:          0
DTLB WRITEBACK ACCESS:          0  HIT:          0  MISS:          0
DTLB PREFETCH  REQUESTED:          0  ISSUED:          0  FILLED:          0  USEFUL:          0  USELESS:          0
ITLB TOTAL     ACCESS:    2064526  HIT:    2064514  MISS:         12
ITLB LOAD      ACCESS:    2064526  HIT:    2064514  MISS:         12
ITLB RFO       ACCESS:          0  HIT:          0  MISS:          0
ITLB PREFETCH  ACCESS:          0  HIT:          0  MISS:          0
ITLB WRITEBACK ACCESS:          0  HIT:          0  MISS:          0
ITLB PREFETCH  REQUESTED:          0  ISSUED:          0  FILLED:          0  USEFUL:          0  USELESS:          0
STLB TOTAL     ACCESS:        892  HIT:        824  MISS:         68
STLB LOAD      ACCESS:        412  HIT:        409  MISS:          3
STLB RFO       ACCESS:        480  HIT:        415  MISS:         65
STLB PREFETCH  ACCESS:          0  HIT:          0  MISS:          0
STLB WRITEBACK ACCESS:          0  HIT:          0  MISS:          0
STLB PREFETCH  REQUESTED:          0  ISSUED:          0  FILLED:          0  USEFUL:          0  USELESS:          0
Major fault: 0 Minor fault: 267

Invalid block decisions: 12445
DBP Decisions: 0
Mockingjay Decisions: 0
Writeback MKJ Decisions: 0

DB Predictions in [0,9]: 
0 39198
2 21
3 23
4 11
7 3
8 16
9 19


DRAM Statistics
 CHANNEL 0
 RQ ROW_BUFFER_HIT:       6937  ROW_BUFFER_MISS:        813
 DBUS_CONGESTED:        462
 WQ ROW_BUFFER_HIT:          0  ROW_BUFFER_MISS:          0  FULL:          0

 AVG_CONGESTED_CYCLE: 4
