
*** ChampSim Multicore Out-of-Order Simulator ***

Warmup Instructions: 1000000
Simulation Instructions: 10000000
Number of CPUs: 1
LLC sets: 2048
LLC ways: 16
Off-chip DRAM Size: 4096 MB Channels: 1 Width: 64-bit Data Rate: 1600 MT/s

CPU 0 runs ./tracefiles/sjeng_1966B.trace.xz
CPU 0 Bimodal branch predictor
sampler set details
set index: 2047
partial tag: 0000000000000000
lru: 0000
reuse bit: 0
trace: 0
valid: 0
********
sampler set details
set index: 1981
partial tag: 0000000000000000
lru: 0000
reuse bit: 0
trace: 0
valid: 0
********
sampler set details
set index: 1915
partial tag: 0000000000000000
lru: 0000
reuse bit: 0
trace: 0
valid: 0
********
sampler set details
set index: 792
partial tag: 0000000000000000
lru: 0000
reuse bit: 0
trace: 0
valid: 0
********
sampler set details
set index: 726
partial tag: 0000000000000000
lru: 0000
reuse bit: 0
trace: 0
valid: 0
********
sampler set details
set index: 660
partial tag: 0000000000000000
lru: 0000
reuse bit: 0
trace: 0
valid: 0
********
sampler set details
set index: 1849
partial tag: 0000000000000000
lru: 0000
reuse bit: 0
trace: 0
valid: 0
********
sampler set details
set index: 594
partial tag: 0000000000000000
lru: 0000
reuse bit: 0
trace: 0
valid: 0
********
sampler set details
set index: 1783
partial tag: 0000000000000000
lru: 0000
reuse bit: 0
trace: 0
valid: 0
********
sampler set details
set index: 528
partial tag: 0000000000000000
lru: 0000
reuse bit: 0
trace: 0
valid: 0
********
sampler set details
set index: 1717
partial tag: 0000000000000000
lru: 0000
reuse bit: 0
trace: 0
valid: 0
********
sampler set details
set index: 462
partial tag: 0000000000000000
lru: 0000
reuse bit: 0
trace: 0
valid: 0
********
sampler set details
set index: 1651
partial tag: 0000000000000000
lru: 0000
reuse bit: 0
trace: 0
valid: 0
********
sampler set details
set index: 396
partial tag: 0000000000000000
lru: 0000
reuse bit: 0
trace: 0
valid: 0
********
sampler set details
set index: 1585
partial tag: 0000000000000000
lru: 0000
reuse bit: 0
trace: 0
valid: 0
********
sampler set details
set index: 330
partial tag: 0000000000000000
lru: 0000
reuse bit: 0
trace: 0
valid: 0
********
sampler set details
set index: 1519
partial tag: 0000000000000000
lru: 0000
reuse bit: 0
trace: 0
valid: 0
********
sampler set details
set index: 264
partial tag: 0000000000000000
lru: 0000
reuse bit: 0
trace: 0
valid: 0
********
sampler set details
set index: 1453
partial tag: 0000000000000000
lru: 0000
reuse bit: 0
trace: 0
valid: 0
********
sampler set details
set index: 198
partial tag: 0000000000000000
lru: 0000
reuse bit: 0
trace: 0
valid: 0
********
sampler set details
set index: 1387
partial tag: 0000000000000000
lru: 0000
reuse bit: 0
trace: 0
valid: 0
********
sampler set details
set index: 132
partial tag: 0000000000000000
lru: 0000
reuse bit: 0
trace: 0
valid: 0
********
sampler set details
set index: 1321
partial tag: 0000000000000000
lru: 0000
reuse bit: 0
trace: 0
valid: 0
********
sampler set details
set index: 66
partial tag: 0000000000000000
lru: 0000
reuse bit: 0
trace: 0
valid: 0
********
sampler set details
set index: 1255
partial tag: 0000000000000000
lru: 0000
reuse bit: 0
trace: 0
valid: 0
********
sampler set details
set index: 0
partial tag: 0000000000000000
lru: 0000
reuse bit: 0
trace: 0
valid: 0
********
sampler set details
set index: 1189
partial tag: 0000000000000000
lru: 0000
reuse bit: 0
trace: 0
valid: 0
********
sampler set details
set index: 858
partial tag: 0000000000000000
lru: 0000
reuse bit: 0
trace: 0
valid: 0
********
sampler set details
set index: 924
partial tag: 0000000000000000
lru: 0000
reuse bit: 0
trace: 0
valid: 0
********
sampler set details
set index: 990
partial tag: 0000000000000000
lru: 0000
reuse bit: 0
trace: 0
valid: 0
********
sampler set details
set index: 1057
partial tag: 0000000000000000
lru: 0000
reuse bit: 0
trace: 0
valid: 0
********
sampler set details
set index: 1123
partial tag: 0000000000000000
lru: 0000
reuse bit: 0
trace: 0
valid: 0
********
sampler set details
set index: 2047
partial tag: 0000000000000000
lru: 0000
reuse bit: 0
trace: 0
valid: 0
********
sampler set details
set index: 1981
partial tag: 0000000000000000
lru: 0000
reuse bit: 0
trace: 0
valid: 0
********
sampler set details
set index: 1915
partial tag: 0000000000000000
lru: 0000
reuse bit: 0
trace: 0
valid: 0
********
sampler set details
set index: 792
partial tag: 0000000000000000
lru: 0000
reuse bit: 0
trace: 0
valid: 0
********
sampler set details
set index: 726
partial tag: 0000000000000000
lru: 0000
reuse bit: 0
trace: 0
valid: 0
********
sampler set details
set index: 660
partial tag: 0000000000000000
lru: 0000
reuse bit: 0
trace: 0
valid: 0
********
sampler set details
set index: 1849
partial tag: 0000000000000000
lru: 0000
reuse bit: 0
trace: 0
valid: 0
********
sampler set details
set index: 594
partial tag: 0000000000000000
lru: 0000
reuse bit: 0
trace: 0
valid: 0
********
sampler set details
set index: 1783
partial tag: 0000001010111111
lru: 0000
reuse bit: 1
trace: 1776
valid: 1
********
sampler set details
set index: 528
partial tag: 0000000000000000
lru: 0000
reuse bit: 0
trace: 0
valid: 0
********
sampler set details
set index: 1717
partial tag: 0000000000000000
lru: 0000
reuse bit: 0
trace: 0
valid: 0
********
sampler set details
set index: 462
partial tag: 0000000000000000
lru: 0000
reuse bit: 0
trace: 0
valid: 0
********
sampler set details
set index: 1651
partial tag: 0000000000000000
lru: 0000
reuse bit: 0
trace: 0
valid: 0
********
sampler set details
set index: 396
partial tag: 0000000000000000
lru: 0000
reuse bit: 0
trace: 0
valid: 0
********
sampler set details
set index: 1585
partial tag: 0000000000000000
lru: 0000
reuse bit: 0
trace: 0
valid: 0
********
sampler set details
set index: 330
partial tag: 0000000000000000
lru: 0000
reuse bit: 0
trace: 0
valid: 0
********
sampler set details
set index: 1519
partial tag: 0000000000000000
lru: 0000
reuse bit: 0
trace: 0
valid: 0
********
sampler set details
set index: 264
partial tag: 0000000000000000
lru: 0000
reuse bit: 0
trace: 0
valid: 0
********
sampler set details
set index: 1453
partial tag: 0000000000000000
lru: 0000
reuse bit: 0
trace: 0
valid: 0
********
sampler set details
set index: 198
partial tag: 0000000000000000
lru: 0000
reuse bit: 0
trace: 0
valid: 0
********
sampler set details
set index: 1387
partial tag: 0000000000000000
lru: 0000
reuse bit: 0
trace: 0
valid: 0
********
sampler set details
set index: 132
partial tag: 0000000000000000
lru: 0000
reuse bit: 0
trace: 0
valid: 0
********
sampler set details
set index: 1321
partial tag: 0000000000000000
lru: 0000
reuse bit: 0
trace: 0
valid: 0
********
sampler set details
set index: 66
partial tag: 0000000000000000
lru: 0000
reuse bit: 0
trace: 0
valid: 0
********
sampler set details
set index: 1255
partial tag: 0000000000000000
lru: 0000
reuse bit: 0
trace: 0
valid: 0
********
sampler set details
set index: 0
partial tag: 0000000000000000
lru: 0000
reuse bit: 0
trace: 0
valid: 0
********
sampler set details
set index: 1189
partial tag: 0000000000000000
lru: 0000
reuse bit: 0
trace: 0
valid: 0
********
sampler set details
set index: 858
partial tag: 0000000000000000
lru: 0000
reuse bit: 0
trace: 0
valid: 0
********
sampler set details
set index: 924
partial tag: 0000000000000000
lru: 0000
reuse bit: 0
trace: 0
valid: 0
********
sampler set details
set index: 990
partial tag: 0000000000000000
lru: 0000
reuse bit: 0
trace: 0
valid: 0
********
sampler set details
set index: 1057
partial tag: 0000000000000000
lru: 0000
reuse bit: 0
trace: 0
valid: 0
********
sampler set details
set index: 1123
partial tag: 0000000000000000
lru: 0000
reuse bit: 0
trace: 0
valid: 0
********
sampler set details
set index: 2047
partial tag: 0000000000000000
lru: 0000
reuse bit: 0
trace: 0
valid: 0
********
sampler set details
set index: 1981
partial tag: 0000000000000000
lru: 0000
reuse bit: 0
trace: 0
valid: 0
********
sampler set details
set index: 1915
partial tag: 0000000000000000
lru: 0000
reuse bit: 0
trace: 0
valid: 0
********
sampler set details
set index: 792
partial tag: 0000000000000000
lru: 0000
reuse bit: 0
trace: 0
valid: 0
********
sampler set details
set index: 726
partial tag: 0000000000000000
lru: 0000
reuse bit: 0
trace: 0
valid: 0
********
sampler set details
set index: 660
partial tag: 0000000000000000
lru: 0000
reuse bit: 0
trace: 0
valid: 0
********
sampler set details
set index: 1849
partial tag: 0000000000000000
lru: 0000
reuse bit: 0
trace: 0
valid: 0
********
sampler set details
set index: 594
partial tag: 0000000000000000
lru: 0000
reuse bit: 0
trace: 0
valid: 0
********
sampler set details
set index: 1783
partial tag: 0000001010111111
lru: 0000
reuse bit: 1
trace: 1776
valid: 1
********
sampler set details
set index: 528
partial tag: 0000000000000000
lru: 0000
reuse bit: 0
trace: 0
valid: 0
********
sampler set details
set index: 1717
partial tag: 0000000000000000
lru: 0000
reuse bit: 0
trace: 0
valid: 0
********
sampler set details
set index: 462
partial tag: 0000001010111111
lru: 0000
reuse bit: 1
trace: 456
valid: 1
********
sampler set details
set index: 1651
partial tag: 0000000000000000
lru: 0000
reuse bit: 0
trace: 0
valid: 0
********
sampler set details
set index: 396
partial tag: 0000000000000000
lru: 0000
reuse bit: 0
trace: 0
valid: 0
********
sampler set details
set index: 1585
partial tag: 0000000000000000
lru: 0000
reuse bit: 0
trace: 0
valid: 0
********
sampler set details
set index: 330
partial tag: 0000000000000000
lru: 0000
reuse bit: 0
trace: 0
valid: 0
********
sampler set details
set index: 1519
partial tag: 0000000000000000
lru: 0000
reuse bit: 0
trace: 0
valid: 0
********
sampler set details
set index: 264
partial tag: 0000000000000000
lru: 0000
reuse bit: 0
trace: 0
valid: 0
********
sampler set details
set index: 1453
partial tag: 0000000000000000
lru: 0000
reuse bit: 0
trace: 0
valid: 0
********
sampler set details
set index: 198
partial tag: 0000000000000000
lru: 0000
reuse bit: 0
trace: 0
valid: 0
********
sampler set details
set index: 1387
partial tag: 0000000000000000
lru: 0000
reuse bit: 0
trace: 0
valid: 0
********
sampler set details
set index: 132
partial tag: 0000000000000000
lru: 0000
reuse bit: 0
trace: 0
valid: 0
********
sampler set details
set index: 1321
partial tag: 0000000000000000
lru: 0000
reuse bit: 0
trace: 0
valid: 0
********
sampler set details
set index: 66
partial tag: 0000000000000000
lru: 0000
reuse bit: 0
trace: 0
valid: 0
********
sampler set details
set index: 1255
partial tag: 0000000000000000
lru: 0000
reuse bit: 0
trace: 0
valid: 0
********
sampler set details
set index: 0
partial tag: 0000000000000000
lru: 0000
reuse bit: 0
trace: 0
valid: 0
********
sampler set details
set index: 1189
partial tag: 0000000000000000
lru: 0000
reuse bit: 0
trace: 0
valid: 0
********
sampler set details
set index: 858
partial tag: 0000000000000000
lru: 0000
reuse bit: 0
trace: 0
valid: 0
********
sampler set details
set index: 924
partial tag: 0000000000000000
lru: 0000
reuse bit: 0
trace: 0
valid: 0
********
sampler set details
set index: 990
partial tag: 0000000000000000
lru: 0000
reuse bit: 0
trace: 0
valid: 0
********
sampler set details
set index: 1057
partial tag: 0000000000000000
lru: 0000
reuse bit: 0
trace: 0
valid: 0
********
sampler set details
set index: 1123
partial tag: 0000000000000000
lru: 0000
reuse bit: 0
trace: 0
valid: 0
********
sampler set details
set index: 2047
partial tag: 0000000000000000
lru: 0000
reuse bit: 0
trace: 0
valid: 0
********
sampler set details
set index: 1981
partial tag: 0000000000000000
lru: 0000
reuse bit: 0
trace: 0
valid: 0
********
sampler set details
set index: 1915
partial tag: 0000000000000000
lru: 0000
reuse bit: 0
trace: 0
valid: 0
********
sampler set details
set index: 792
partial tag: 0000000000000000
lru: 0000
reuse bit: 0
trace: 0
valid: 0
********
sampler set details
set index: 726
partial tag: 0000000000000000
lru: 0000
reuse bit: 0
trace: 0
valid: 0
********
sampler set details
set index: 660
partial tag: 0000000000000000
lru: 0000
reuse bit: 0
trace: 0
valid: 0
********
sampler set details
set index: 1849
partial tag: 0000000000000000
lru: 0000
reuse bit: 0
trace: 0
valid: 0
********
sampler set details
set index: 594
partial tag: 0000001010111111
lru: 0000
reuse bit: 1
trace: 1981
valid: 1
********
sampler set details
set index: 1783
partial tag: 0000001010111111
lru: 0000
reuse bit: 1
trace: 1776
valid: 1
********
sampler set details
set index: 528
partial tag: 0000000000000000
lru: 0000
reuse bit: 0
trace: 0
valid: 0
********
sampler set details
set index: 1717
partial tag: 0000000000000000
lru: 0000
reuse bit: 0
trace: 0
valid: 0
********
sampler set details
set index: 462
partial tag: 0000001010111111
lru: 0000
reuse bit: 1
trace: 456
valid: 1
********
sampler set details
set index: 1651
partial tag: 0000000000000000
lru: 0000
reuse bit: 0
trace: 0
valid: 0
********
sampler set details
set index: 396
partial tag: 0000000000000000
lru: 0000
reuse bit: 0
trace: 0
valid: 0
********
sampler set details
set index: 1585
partial tag: 0000000000000000
lru: 0000
reuse bit: 0
trace: 0
valid: 0
********
sampler set details
set index: 330
partial tag: 0000000000000000
lru: 0000
reuse bit: 0
trace: 0
valid: 0
********
sampler set details
set index: 1519
partial tag: 0000000000000000
lru: 0000
reuse bit: 0
trace: 0
valid: 0
********
sampler set details
set index: 264
partial tag: 0000000000000000
lru: 0000
reuse bit: 0
trace: 0
valid: 0
********
sampler set details
set index: 1453
partial tag: 0000000000000000
lru: 0000
reuse bit: 0
trace: 0
valid: 0
********
sampler set details
set index: 198
partial tag: 0000000000000000
lru: 0000
reuse bit: 0
trace: 0
valid: 0
********
sampler set details
set index: 1387
partial tag: 0000000000000000
lru: 0000
reuse bit: 0
trace: 0
valid: 0
********
sampler set details
set index: 132
partial tag: 0000000000000000
lru: 0000
reuse bit: 0
trace: 0
valid: 0
********
sampler set details
set index: 1321
partial tag: 0000000000000000
lru: 0000
reuse bit: 0
trace: 0
valid: 0
********
sampler set details
set index: 66
partial tag: 0000000000000000
lru: 0000
reuse bit: 0
trace: 0
valid: 0
********
sampler set details
set index: 1255
partial tag: 0000000000000000
lru: 0000
reuse bit: 0
trace: 0
valid: 0
********
sampler set details
set index: 0
partial tag: 0000000000000000
lru: 0000
reuse bit: 0
trace: 0
valid: 0
********
sampler set details
set index: 1189
partial tag: 0000000000000000
lru: 0000
reuse bit: 0
trace: 0
valid: 0
********
sampler set details
set index: 858
partial tag: 0000000000000000
lru: 0000
reuse bit: 0
trace: 0
valid: 0
********
sampler set details
set index: 924
partial tag: 0000000000000000
lru: 0000
reuse bit: 0
trace: 0
valid: 0
********
sampler set details
set index: 990
partial tag: 0000000000000000
lru: 0000
reuse bit: 0
trace: 0
valid: 0
********
sampler set details
set index: 1057
partial tag: 0000000000000000
lru: 0000
reuse bit: 0
trace: 0
valid: 0
********
sampler set details
set index: 1123
partial tag: 0000000000000000
lru: 0000
reuse bit: 0
trace: 0
valid: 0
********
sampler set details
set index: 2047
partial tag: 0000000000000000
lru: 0000
reuse bit: 0
trace: 0
valid: 0
********
sampler set details
set index: 1981
partial tag: 0000000000000000
lru: 0000
reuse bit: 0
trace: 0
valid: 0
********
sampler set details
set index: 1915
partial tag: 0000000000000000
lru: 0000
reuse bit: 0
trace: 0
valid: 0
********
sampler set details
set index: 792
partial tag: 0000001010111111
lru: 0000
reuse bit: 1
trace: 1981
valid: 1
********
sampler set details
set index: 726
partial tag: 0000000000000000
lru: 0000
reuse bit: 0
trace: 0
valid: 0
********
sampler set details
set index: 660
partial tag: 0000000000000000
lru: 0000
reuse bit: 0
trace: 0
valid: 0
********
sampler set details
set index: 1849
partial tag: 0000000000000000
lru: 0000
reuse bit: 0
trace: 0
valid: 0
********
sampler set details
set index: 594
partial tag: 0000001010111111
lru: 0000
reuse bit: 1
trace: 1981
valid: 1
********
sampler set details
set index: 1783
partial tag: 0000001010111111
lru: 0000
reuse bit: 1
trace: 1776
valid: 1
********
sampler set details
set index: 528
partial tag: 0000000000000000
lru: 0000
reuse bit: 0
trace: 0
valid: 0
********
sampler set details
set index: 1717
partial tag: 0000000000000000
lru: 0000
reuse bit: 0
trace: 0
valid: 0
********
sampler set details
set index: 462
partial tag: 0000001010111111
lru: 0000
reuse bit: 1
trace: 456
valid: 1
********
sampler set details
set index: 1651
partial tag: 0000000000000000
lru: 0000
reuse bit: 0
trace: 0
valid: 0
********
sampler set details
set index: 396
partial tag: 0000000000000000
lru: 0000
reuse bit: 0
trace: 0
valid: 0
********
sampler set details
set index: 1585
partial tag: 0000000000000000
lru: 0000
reuse bit: 0
trace: 0
valid: 0
********
sampler set details
set index: 330
partial tag: 0000000000000000
lru: 0000
reuse bit: 0
trace: 0
valid: 0
********
sampler set details
set index: 1519
partial tag: 0000000000000000
lru: 0000
reuse bit: 0
trace: 0
valid: 0
********
sampler set details
set index: 264
partial tag: 0000000000000000
lru: 0000
reuse bit: 0
trace: 0
valid: 0
********
sampler set details
set index: 1453
partial tag: 0000000000000000
lru: 0000
reuse bit: 0
trace: 0
valid: 0
********
sampler set details
set index: 198
partial tag: 0000000000000000
lru: 0000
reuse bit: 0
trace: 0
valid: 0
********
sampler set details
set index: 1387
partial tag: 0000000000000000
lru: 0000
reuse bit: 0
trace: 0
valid: 0
********
sampler set details
set index: 132
partial tag: 0000000000000000
lru: 0000
reuse bit: 0
trace: 0
valid: 0
********
sampler set details
set index: 1321
partial tag: 0000000000000000
lru: 0000
reuse bit: 0
trace: 0
valid: 0
********
sampler set details
set index: 66
partial tag: 0000000000000000
lru: 0000
reuse bit: 0
trace: 0
valid: 0
********
sampler set details
set index: 1255
partial tag: 0000000000000000
lru: 0000
reuse bit: 0
trace: 0
valid: 0
********
sampler set details
set index: 0
partial tag: 0000000000000000
lru: 0000
reuse bit: 0
trace: 0
valid: 0
********
sampler set details
set index: 1189
partial tag: 0000000000000000
lru: 0000
reuse bit: 0
trace: 0
valid: 0
********
sampler set details
set index: 858
partial tag: 0000000000000000
lru: 0000
reuse bit: 0
trace: 0
valid: 0
********
sampler set details
set index: 924
partial tag: 0000000000000000
lru: 0000
reuse bit: 0
trace: 0
valid: 0
********
sampler set details
set index: 990
partial tag: 0000000000000000
lru: 0000
reuse bit: 0
trace: 0
valid: 0
********
sampler set details
set index: 1057
partial tag: 0000000000000000
lru: 0000
reuse bit: 0
trace: 0
valid: 0
********
sampler set details
set index: 1123
partial tag: 0000000000000000
lru: 0000
reuse bit: 0
trace: 0
valid: 0
********
sampler set details
set index: 2047
partial tag: 0000000000000000
lru: 0000
reuse bit: 0
trace: 0
valid: 0
********
sampler set details
set index: 1981
partial tag: 0000000000000000
lru: 0000
reuse bit: 0
trace: 0
valid: 0
********
sampler set details
set index: 1915
partial tag: 0000000000000000
lru: 0000
reuse bit: 0
trace: 0
valid: 0
********
sampler set details
set index: 792
partial tag: 0000001010111111
lru: 0000
reuse bit: 1
trace: 1981
valid: 1
********
sampler set details
set index: 726
partial tag: 0000000000000000
lru: 0000
reuse bit: 0
trace: 0
valid: 0
********
sampler set details
set index: 660
partial tag: 0000000000000000
lru: 0000
reuse bit: 0
trace: 0
valid: 0
********
sampler set details
set index: 1849
partial tag: 0000000000000000
lru: 0000
reuse bit: 0
trace: 0
valid: 0
********
sampler set details
set index: 594
partial tag: 0000001010111111
lru: 0000
reuse bit: 1
trace: 1981
valid: 1
********
sampler set details
set index: 1783
partial tag: 0000001010111111
lru: 0000
reuse bit: 1
trace: 1776
valid: 1
********
sampler set details
set index: 528
partial tag: 0000000000000000
lru: 0000
reuse bit: 0
trace: 0
valid: 0
********
sampler set details
set index: 1717
partial tag: 0000000000000000
lru: 0000
reuse bit: 0
trace: 0
valid: 0
********
sampler set details
set index: 462
partial tag: 0000001010111111
lru: 0000
reuse bit: 1
trace: 456
valid: 1
********
sampler set details
set index: 1651
partial tag: 0000000000000000
lru: 0000
reuse bit: 0
trace: 0
valid: 0
********
sampler set details
set index: 396
partial tag: 0000000000000000
lru: 0000
reuse bit: 0
trace: 0
valid: 0
********
sampler set details
set index: 1585
partial tag: 0000000000000000
lru: 0000
reuse bit: 0
trace: 0
valid: 0
********
sampler set details
set index: 330
partial tag: 0000000000000000
lru: 0000
reuse bit: 0
trace: 0
valid: 0
********
sampler set details
set index: 1519
partial tag: 0000000000000000
lru: 0000
reuse bit: 0
trace: 0
valid: 0
********
sampler set details
set index: 264
partial tag: 0000000000000000
lru: 0000
reuse bit: 0
trace: 0
valid: 0
********
sampler set details
set index: 1453
partial tag: 0000000000000000
lru: 0000
reuse bit: 0
trace: 0
valid: 0
********
sampler set details
set index: 198
partial tag: 0000000000000000
lru: 0000
reuse bit: 0
trace: 0
valid: 0
********
sampler set details
set index: 1387
partial tag: 0000001010111111
lru: 0000
reuse bit: 1
trace: 1389
valid: 1
********
sampler set details
set index: 132
partial tag: 0000000000000000
lru: 0000
reuse bit: 0
trace: 0
valid: 0
********
sampler set details
set index: 1321
partial tag: 0000000000000000
lru: 0000
reuse bit: 0
trace: 0
valid: 0
********
sampler set details
set index: 66
partial tag: 0000000000000000
lru: 0000
reuse bit: 0
trace: 0
valid: 0
********
sampler set details
set index: 1255
partial tag: 0000000000000000
lru: 0000
reuse bit: 0
trace: 0
valid: 0
********
sampler set details
set index: 0
partial tag: 0000000000000000
lru: 0000
reuse bit: 0
trace: 0
valid: 0
********
sampler set details
set index: 1189
partial tag: 0000000000000000
lru: 0000
reuse bit: 0
trace: 0
valid: 0
********
sampler set details
set index: 858
partial tag: 0000000000000000
lru: 0000
reuse bit: 0
trace: 0
valid: 0
********
sampler set details
set index: 924
partial tag: 0000000000000000
lru: 0000
reuse bit: 0
trace: 0
valid: 0
********
sampler set details
set index: 990
partial tag: 0000000000000000
lru: 0000
reuse bit: 0
trace: 0
valid: 0
********
sampler set details
set index: 1057
partial tag: 0000000000000000
lru: 0000
reuse bit: 0
trace: 0
valid: 0
********
sampler set details
set index: 1123
partial tag: 0000000000000000
lru: 0000
reuse bit: 0
trace: 0
valid: 0
********
sampler set details
set index: 2047
partial tag: 0000001010111111
lru: 0000
reuse bit: 1
trace: 1925
valid: 1
********
sampler set details
set index: 1981
partial tag: 0000000000000000
lru: 0000
reuse bit: 0
trace: 0
valid: 0
********
sampler set details
set index: 1915
partial tag: 0000000000000000
lru: 0000
reuse bit: 0
trace: 0
valid: 0
********
sampler set details
set index: 792
partial tag: 0000001010111111
lru: 0000
reuse bit: 1
trace: 1981
valid: 1
********
sampler set details
set index: 726
partial tag: 0000000000000000
lru: 0000
reuse bit: 0
trace: 0
valid: 0
********
sampler set details
set index: 660
partial tag: 0000000000000000
lru: 0000
reuse bit: 0
trace: 0
valid: 0
********
sampler set details
set index: 1849
partial tag: 0000000000000000
lru: 0000
reuse bit: 0
trace: 0
valid: 0
********
sampler set details
set index: 594
partial tag: 0000001010111111
lru: 0000
reuse bit: 1
trace: 1981
valid: 1
********
sampler set details
set index: 1783
partial tag: 0000001010111111
lru: 0000
reuse bit: 1
trace: 1776
valid: 1
********
sampler set details
set index: 528
partial tag: 0000000000000000
lru: 0000
reuse bit: 0
trace: 0
valid: 0
********
sampler set details
set index: 1717
partial tag: 0000000000000000
lru: 0000
reuse bit: 0
trace: 0
valid: 0
********
sampler set details
set index: 462
partial tag: 0000001010111111
lru: 0000
reuse bit: 1
trace: 456
valid: 1
********
sampler set details
set index: 1651
partial tag: 0000000000000000
lru: 0000
reuse bit: 0
trace: 0
valid: 0
********
sampler set details
set index: 396
partial tag: 0000000000000000
lru: 0000
reuse bit: 0
trace: 0
valid: 0
********
sampler set details
set index: 1585
partial tag: 0000000000000000
lru: 0000
reuse bit: 0
trace: 0
valid: 0
********
sampler set details
set index: 330
partial tag: 0000000000000000
lru: 0000
reuse bit: 0
trace: 0
valid: 0
********
sampler set details
set index: 1519
partial tag: 0000000000000000
lru: 0000
reuse bit: 0
trace: 0
valid: 0
********
sampler set details
set index: 264
partial tag: 0000000000000000
lru: 0000
reuse bit: 0
trace: 0
valid: 0
********
sampler set details
set index: 1453
partial tag: 0000000000000000
lru: 0000
reuse bit: 0
trace: 0
valid: 0
********
sampler set details
set index: 198
partial tag: 0000000000000000
lru: 0000
reuse bit: 0
trace: 0
valid: 0
********
sampler set details
set index: 1387
partial tag: 0000001010111111
lru: 0000
reuse bit: 1
trace: 1389
valid: 1
********
sampler set details
set index: 132
partial tag: 0000000000000000
lru: 0000
reuse bit: 0
trace: 0
valid: 0
********
sampler set details
set index: 1321
partial tag: 0000000000000000
lru: 0000
reuse bit: 0
trace: 0
valid: 0
********
sampler set details
set index: 66
partial tag: 0000000000000000
lru: 0000
reuse bit: 0
trace: 0
valid: 0
********
sampler set details
set index: 1255
partial tag: 0000000000000000
lru: 0000
reuse bit: 0
trace: 0
valid: 0
********
sampler set details
set index: 0
partial tag: 0000000000000000
lru: 0000
reuse bit: 0
trace: 0
valid: 0
********
sampler set details
set index: 1189
partial tag: 0000000000000000
lru: 0000
reuse bit: 0
trace: 0
valid: 0
********
sampler set details
set index: 858
partial tag: 0000000000000000
lru: 0000
reuse bit: 0
trace: 0
valid: 0
********
sampler set details
set index: 924
partial tag: 0000000000000000
lru: 0000
reuse bit: 0
trace: 0
valid: 0
********
sampler set details
set index: 990
partial tag: 0000000000000000
lru: 0000
reuse bit: 0
trace: 0
valid: 0
********
sampler set details
set index: 1057
partial tag: 0000000000000000
lru: 0000
reuse bit: 0
trace: 0
valid: 0
********
sampler set details
set index: 1123
partial tag: 0000000000000000
lru: 0000
reuse bit: 0
trace: 0
valid: 0
********
sampler set details
set index: 2047
partial tag: 0000001010111111
lru: 0000
reuse bit: 1
trace: 1925
valid: 1
********
sampler set details
set index: 1981
partial tag: 0000000000000000
lru: 0000
reuse bit: 0
trace: 0
valid: 0
********
sampler set details
set index: 1915
partial tag: 0000000000000000
lru: 0000
reuse bit: 0
trace: 0
valid: 0
********
sampler set details
set index: 792
partial tag: 0000001010111111
lru: 0000
reuse bit: 1
trace: 1981
valid: 1
********
sampler set details
set index: 726
partial tag: 0000000000000000
lru: 0000
reuse bit: 0
trace: 0
valid: 0
********
sampler set details
set index: 660
partial tag: 0000000000000000
lru: 0000
reuse bit: 0
trace: 0
valid: 0
********
sampler set details
set index: 1849
partial tag: 0000000000000000
lru: 0000
reuse bit: 0
trace: 0
valid: 0
********
sampler set details
set index: 594
partial tag: 0000001010111111
lru: 0000
reuse bit: 1
trace: 1981
valid: 1
********
sampler set details
set index: 1783
partial tag: 0000001010111111
lru: 0000
reuse bit: 1
trace: 1776
valid: 1
********
sampler set details
set index: 528
partial tag: 0000000000000000
lru: 0000
reuse bit: 0
trace: 0
valid: 0
********
sampler set details
set index: 1717
partial tag: 0000000000000000
lru: 0000
reuse bit: 0
trace: 0
valid: 0
********
sampler set details
set index: 462
partial tag: 0000001010111111
lru: 0000
reuse bit: 1
trace: 456
valid: 1
********
sampler set details
set index: 1651
partial tag: 0000000000000000
lru: 0000
reuse bit: 0
trace: 0
valid: 0
********
sampler set details
set index: 396
partial tag: 0000000000000000
lru: 0000
reuse bit: 0
trace: 0
valid: 0
********
sampler set details
set index: 1585
partial tag: 0000000000000000
lru: 0000
reuse bit: 0
trace: 0
valid: 0
********
sampler set details
set index: 330
partial tag: 0000000000000000
lru: 0000
reuse bit: 0
trace: 0
valid: 0
********
sampler set details
set index: 1519
partial tag: 0000000000000000
lru: 0000
reuse bit: 0
trace: 0
valid: 0
********
sampler set details
set index: 264
partial tag: 0000000000000000
lru: 0000
reuse bit: 0
trace: 0
valid: 0
********
sampler set details
set index: 1453
partial tag: 0000000000000000
lru: 0000
reuse bit: 0
trace: 0
valid: 0
********
sampler set details
set index: 198
partial tag: 0000000000000000
lru: 0000
reuse bit: 0
trace: 0
valid: 0
********
sampler set details
set index: 1387
partial tag: 0000001010111111
lru: 0000
reuse bit: 1
trace: 1389
valid: 1
********
sampler set details
set index: 132
partial tag: 0000000000000000
lru: 0000
reuse bit: 0
trace: 0
valid: 0
********
sampler set details
set index: 1321
partial tag: 0000000000000000
lru: 0000
reuse bit: 0
trace: 0
valid: 0
********
sampler set details
set index: 66
partial tag: 0000000000000000
lru: 0000
reuse bit: 0
trace: 0
valid: 0
********
sampler set details
set index: 1255
partial tag: 0000000000000000
lru: 0000
reuse bit: 0
trace: 0
valid: 0
********
sampler set details
set index: 0
partial tag: 0000001010111111
lru: 0000
reuse bit: 1
trace: 1184
valid: 1
********
sampler set details
set index: 1189
partial tag: 0000000000000000
lru: 0000
reuse bit: 0
trace: 0
valid: 0
********
sampler set details
set index: 858
partial tag: 0000000000000000
lru: 0000
reuse bit: 0
trace: 0
valid: 0
********
sampler set details
set index: 924
partial tag: 0000000000000000
lru: 0000
reuse bit: 0
trace: 0
valid: 0
********
sampler set details
set index: 990
partial tag: 0000000000000000
lru: 0000
reuse bit: 0
trace: 0
valid: 0
********
sampler set details
set index: 1057
partial tag: 0000000000000000
lru: 0000
reuse bit: 0
trace: 0
valid: 0
********
sampler set details
set index: 1123
partial tag: 0000000000000000
lru: 0000
reuse bit: 0
trace: 0
valid: 0
********
sampler set details
set index: 2047
partial tag: 0000001010111111
lru: 0000
reuse bit: 1
trace: 1925
valid: 1
********
sampler set details
set index: 1981
partial tag: 0000000000000000
lru: 0000
reuse bit: 0
trace: 0
valid: 0
********
sampler set details
set index: 1915
partial tag: 0000000000000000
lru: 0000
reuse bit: 0
trace: 0
valid: 0
********
sampler set details
set index: 792
partial tag: 0000001010111111
lru: 0000
reuse bit: 1
trace: 1981
valid: 1
********
sampler set details
set index: 726
partial tag: 0000000000000000
lru: 0000
reuse bit: 0
trace: 0
valid: 0
********
sampler set details
set index: 660
partial tag: 0000000000000000
lru: 0000
reuse bit: 0
trace: 0
valid: 0
********
sampler set details
set index: 1849
partial tag: 0000000000000000
lru: 0000
reuse bit: 0
trace: 0
valid: 0
********
sampler set details
set index: 594
partial tag: 0000001010111111
lru: 0000
reuse bit: 1
trace: 1981
valid: 1
********
sampler set details
set index: 1783
partial tag: 0000001010111111
lru: 0000
reuse bit: 1
trace: 1776
valid: 1
********
sampler set details
set index: 528
partial tag: 0000000000000000
lru: 0000
reuse bit: 0
trace: 0
valid: 0
********
sampler set details
set index: 1717
partial tag: 0000000000000000
lru: 0000
reuse bit: 0
trace: 0
valid: 0
********
sampler set details
set index: 462
partial tag: 0000001010111111
lru: 0000
reuse bit: 1
trace: 456
valid: 1
********
sampler set details
set index: 1651
partial tag: 0000000000000000
lru: 0000
reuse bit: 0
trace: 0
valid: 0
********
sampler set details
set index: 396
partial tag: 0000000000000000
lru: 0000
reuse bit: 0
trace: 0
valid: 0
********
sampler set details
set index: 1585
partial tag: 0000000000000000
lru: 0000
reuse bit: 0
trace: 0
valid: 0
********
sampler set details
set index: 330
partial tag: 0000000000000000
lru: 0000
reuse bit: 0
trace: 0
valid: 0
********
sampler set details
set index: 1519
partial tag: 0000000000000000
lru: 0000
reuse bit: 0
trace: 0
valid: 0
********
sampler set details
set index: 264
partial tag: 0000000000000000
lru: 0000
reuse bit: 0
trace: 0
valid: 0
********
sampler set details
set index: 1453
partial tag: 0000000000000000
lru: 0000
reuse bit: 0
trace: 0
valid: 0
********
sampler set details
set index: 198
partial tag: 0000000000000000
lru: 0000
reuse bit: 0
trace: 0
valid: 0
********
sampler set details
set index: 1387
partial tag: 0000001010111111
lru: 0000
reuse bit: 1
trace: 1389
valid: 1
********
sampler set details
set index: 132
partial tag: 0000000000000000
lru: 0000
reuse bit: 0
trace: 0
valid: 0
********
sampler set details
set index: 1321
partial tag: 0000000000000000
lru: 0000
reuse bit: 0
trace: 0
valid: 0
********
sampler set details
set index: 66
partial tag: 0000000000000000
lru: 0000
reuse bit: 0
trace: 0
valid: 0
********
sampler set details
set index: 1255
partial tag: 0000000000000000
lru: 0000
reuse bit: 0
trace: 0
valid: 0
********
sampler set details
set index: 0
partial tag: 0000001010111111
lru: 0000
reuse bit: 1
trace: 1184
valid: 1
********
sampler set details
set index: 1189
partial tag: 0000000000000000
lru: 0000
reuse bit: 0
trace: 0
valid: 0
********
sampler set details
set index: 858
partial tag: 0000000000000000
lru: 0000
reuse bit: 0
trace: 0
valid: 0
********
sampler set details
set index: 924
partial tag: 0000000000000000
lru: 0000
reuse bit: 0
trace: 0
valid: 0
********
sampler set details
set index: 990
partial tag: 0000000000110001
lru: 0000
reuse bit: 1
trace: 224
valid: 1
********
sampler set details
set index: 1057
partial tag: 0000000000000000
lru: 0000
reuse bit: 0
trace: 0
valid: 0
********
sampler set details
set index: 1123
partial tag: 0000000000000000
lru: 0000
reuse bit: 0
trace: 0
valid: 0
********
sampler set details
set index: 2047
partial tag: 0000001010111111
lru: 0000
reuse bit: 1
trace: 1925
valid: 1
********
sampler set details
set index: 1981
partial tag: 0000000000000000
lru: 0000
reuse bit: 0
trace: 0
valid: 0
********
sampler set details
set index: 1915
partial tag: 0000000000000000
lru: 0000
reuse bit: 0
trace: 0
valid: 0
********
sampler set details
set index: 792
partial tag: 0000001010111111
lru: 0000
reuse bit: 1
trace: 1981
valid: 1
********
sampler set details
set index: 726
partial tag: 0000000000000000
lru: 0000
reuse bit: 0
trace: 0
valid: 0
********
sampler set details
set index: 660
partial tag: 0000000000000000
lru: 0000
reuse bit: 0
trace: 0
valid: 0
********
sampler set details
set index: 1849
partial tag: 0000000000000000
lru: 0000
reuse bit: 0
trace: 0
valid: 0
********
sampler set details
set index: 594
partial tag: 0000001010111111
lru: 0000
reuse bit: 1
trace: 1981
valid: 1
********
sampler set details
set index: 1783
partial tag: 0000001010111111
lru: 0000
reuse bit: 1
trace: 1776
valid: 1
********
sampler set details
set index: 528
partial tag: 0000000000000000
lru: 0000
reuse bit: 0
trace: 0
valid: 0
********
sampler set details
set index: 1717
partial tag: 0000000000000000
lru: 0000
reuse bit: 0
trace: 0
valid: 0
********
sampler set details
set index: 462
partial tag: 0000001010111111
lru: 0000
reuse bit: 1
trace: 456
valid: 1
********
sampler set details
set index: 1651
partial tag: 0000000000000000
lru: 0000
reuse bit: 0
trace: 0
valid: 0
********
sampler set details
set index: 396
partial tag: 0000000000000000
lru: 0000
reuse bit: 0
trace: 0
valid: 0
********
sampler set details
set index: 1585
partial tag: 0000000000000000
lru: 0000
reuse bit: 0
trace: 0
valid: 0
********
sampler set details
set index: 330
partial tag: 0000000000000000
lru: 0000
reuse bit: 0
trace: 0
valid: 0
********
sampler set details
set index: 1519
partial tag: 0000000000000000
lru: 0000
reuse bit: 0
trace: 0
valid: 0
********
sampler set details
set index: 264
partial tag: 0000000000000000
lru: 0000
reuse bit: 0
trace: 0
valid: 0
********
sampler set details
set index: 1453
partial tag: 0000000000000000
lru: 0000
reuse bit: 0
trace: 0
valid: 0
********
sampler set details
set index: 198
partial tag: 0000000000000000
lru: 0000
reuse bit: 0
trace: 0
valid: 0
********
sampler set details
set index: 1387
partial tag: 0000001010111111
lru: 0000
reuse bit: 1
trace: 1389
valid: 1
********
sampler set details
set index: 132
partial tag: 0000000000000000
lru: 0000
reuse bit: 0
trace: 0
valid: 0
********
sampler set details
set index: 1321
partial tag: 0000001010111111
lru: 0000
reuse bit: 1
trace: 1430
valid: 1
********
sampler set details
set index: 66
partial tag: 0000000000000000
lru: 0000
reuse bit: 0
trace: 0
valid: 0
********
sampler set details
set index: 1255
partial tag: 0000000000000000
lru: 0000
reuse bit: 0
trace: 0
valid: 0
********
sampler set details
set index: 0
partial tag: 0000001010111111
lru: 0000
reuse bit: 1
trace: 1184
valid: 1
********
sampler set details
set index: 1189
partial tag: 0000000000000000
lru: 0000
reuse bit: 0
trace: 0
valid: 0
********
sampler set details
set index: 858
partial tag: 0000000000000000
lru: 0000
reuse bit: 0
trace: 0
valid: 0
********
sampler set details
set index: 924
partial tag: 0000000000000000
lru: 0000
reuse bit: 0
trace: 0
valid: 0
********
sampler set details
set index: 990
partial tag: 0000000000110001
lru: 0000
reuse bit: 1
trace: 224
valid: 1
********
sampler set details
set index: 1057
partial tag: 0000000000000000
lru: 0000
reuse bit: 0
trace: 0
valid: 0
********
sampler set details
set index: 1123
partial tag: 0000000000000000
lru: 0000
reuse bit: 0
trace: 0
valid: 0
********
sampler set details
set index: 2047
partial tag: 0000001010111111
lru: 0000
reuse bit: 1
trace: 1028
valid: 1
********
sampler set details
set index: 1981
partial tag: 0000000000000000
lru: 0000
reuse bit: 0
trace: 0
valid: 0
********
sampler set details
set index: 1915
partial tag: 0000000000000000
lru: 0000
reuse bit: 0
trace: 0
valid: 0
********
sampler set details
set index: 792
partial tag: 0000001010111111
lru: 0000
reuse bit: 1
trace: 1981
valid: 1
********
sampler set details
set index: 726
partial tag: 0000000000000000
lru: 0000
reuse bit: 0
trace: 0
valid: 0
********
sampler set details
set index: 660
partial tag: 0000000000000000
lru: 0000
reuse bit: 0
trace: 0
valid: 0
********
sampler set details
set index: 1849
partial tag: 0000000000000000
lru: 0000
reuse bit: 0
trace: 0
valid: 0
********
sampler set details
set index: 594
partial tag: 0000001010111111
lru: 0000
reuse bit: 1
trace: 1981
valid: 1
********
sampler set details
set index: 1783
partial tag: 0000001010111111
lru: 0000
reuse bit: 1
trace: 1776
valid: 1
********
sampler set details
set index: 528
partial tag: 0000000000000000
lru: 0000
reuse bit: 0
trace: 0
valid: 0
********
sampler set details
set index: 1717
partial tag: 0000000000000000
lru: 0000
reuse bit: 0
trace: 0
valid: 0
********
sampler set details
set index: 462
partial tag: 0000001010111111
lru: 0000
reuse bit: 1
trace: 456
valid: 1
********
sampler set details
set index: 1651
partial tag: 0000000000000000
lru: 0000
reuse bit: 0
trace: 0
valid: 0
********
sampler set details
set index: 396
partial tag: 0000000000000000
lru: 0000
reuse bit: 0
trace: 0
valid: 0
********
sampler set details
set index: 1585
partial tag: 0000000000000000
lru: 0000
reuse bit: 0
trace: 0
valid: 0
********
sampler set details
set index: 330
partial tag: 0000000000000000
lru: 0000
reuse bit: 0
trace: 0
valid: 0
********
sampler set details
set index: 1519
partial tag: 0000000000000000
lru: 0000
reuse bit: 0
trace: 0
valid: 0
********
sampler set details
set index: 264
partial tag: 0000000000000000
lru: 0000
reuse bit: 0
trace: 0
valid: 0
********
sampler set details
set index: 1453
partial tag: 0000000000000000
lru: 0000
reuse bit: 0
trace: 0
valid: 0
********
sampler set details
set index: 198
partial tag: 0000000000000000
lru: 0000
reuse bit: 0
trace: 0
valid: 0
********
sampler set details
set index: 1387
partial tag: 0000001010111111
lru: 0000
reuse bit: 1
trace: 1389
valid: 1
********
sampler set details
set index: 132
partial tag: 0000000000000000
lru: 0000
reuse bit: 0
trace: 0
valid: 0
********
sampler set details
set index: 1321
partial tag: 0000001010111111
lru: 0000
reuse bit: 1
trace: 1430
valid: 1
********
sampler set details
set index: 66
partial tag: 0000000000000000
lru: 0000
reuse bit: 0
trace: 0
valid: 0
********
sampler set details
set index: 1255
partial tag: 0000000000000000
lru: 0000
reuse bit: 0
trace: 0
valid: 0
********
sampler set details
set index: 0
partial tag: 0000001010111111
lru: 0000
reuse bit: 1
trace: 1184
valid: 1
********
sampler set details
set index: 1189
partial tag: 0000000000000000
lru: 0000
reuse bit: 0
trace: 0
valid: 0
********
sampler set details
set index: 858
partial tag: 0000000000000000
lru: 0000
reuse bit: 0
trace: 0
valid: 0
********
sampler set details
set index: 924
partial tag: 0000000000000000
lru: 0000
reuse bit: 0
trace: 0
valid: 0
********
sampler set details
set index: 990
partial tag: 0000000000110001
lru: 0000
reuse bit: 1
trace: 224
valid: 1
********
sampler set details
set index: 1057
partial tag: 0000000000000000
lru: 0000
reuse bit: 0
trace: 0
valid: 0
********
sampler set details
set index: 1123
partial tag: 0000000000000000
lru: 0000
reuse bit: 0
trace: 0
valid: 0
********
sampler set details
set index: 2047
partial tag: 0000001010111111
lru: 0000
reuse bit: 1
trace: 1028
valid: 1
********
sampler set details
set index: 1981
partial tag: 0000000000000000
lru: 0000
reuse bit: 0
trace: 0
valid: 0
********
sampler set details
set index: 1915
partial tag: 0000000000000000
lru: 0000
reuse bit: 0
trace: 0
valid: 0
********
sampler set details
set index: 792
partial tag: 0000001010111111
lru: 0000
reuse bit: 1
trace: 1981
valid: 1
********
sampler set details
set index: 726
partial tag: 0000000000000000
lru: 0000
reuse bit: 0
trace: 0
valid: 0
********
sampler set details
set index: 660
partial tag: 0000000000000000
lru: 0000
reuse bit: 0
trace: 0
valid: 0
********
sampler set details
set index: 1849
partial tag: 0000000000000000
lru: 0000
reuse bit: 0
trace: 0
valid: 0
********
sampler set details
set index: 594
partial tag: 0000001010111111
lru: 0000
reuse bit: 1
trace: 1981
valid: 1
********
sampler set details
set index: 1783
partial tag: 0000001010111111
lru: 0000
reuse bit: 1
trace: 1776
valid: 1
********
sampler set details
set index: 528
partial tag: 0000000000000000
lru: 0000
reuse bit: 0
trace: 0
valid: 0
********
sampler set details
set index: 1717
partial tag: 0000000000000000
lru: 0000
reuse bit: 0
trace: 0
valid: 0
********
sampler set details
set index: 462
partial tag: 0000001010111111
lru: 0000
reuse bit: 1
trace: 456
valid: 1
********
sampler set details
set index: 1651
partial tag: 0000000000000000
lru: 0000
reuse bit: 0
trace: 0
valid: 0
********
sampler set details
set index: 396
partial tag: 0000000000000000
lru: 0000
reuse bit: 0
trace: 0
valid: 0
********
sampler set details
set index: 1585
partial tag: 0000000000000000
lru: 0000
reuse bit: 0
trace: 0
valid: 0
********
sampler set details
set index: 330
partial tag: 0000000000000000
lru: 0000
reuse bit: 0
trace: 0
valid: 0
********
sampler set details
set index: 1519
partial tag: 0000000000000000
lru: 0000
reuse bit: 0
trace: 0
valid: 0
********
sampler set details
set index: 264
partial tag: 0000000000000000
lru: 0000
reuse bit: 0
trace: 0
valid: 0
********
sampler set details
set index: 1453
partial tag: 0000000000000000
lru: 0000
reuse bit: 0
trace: 0
valid: 0
********
sampler set details
set index: 198
partial tag: 0000000000000000
lru: 0000
reuse bit: 0
trace: 0
valid: 0
********
sampler set details
set index: 1387
partial tag: 0000001010111111
lru: 0000
reuse bit: 1
trace: 1389
valid: 1
********
sampler set details
set index: 132
partial tag: 0000000000000000
lru: 0000
reuse bit: 0
trace: 0
valid: 0
********
sampler set details
set index: 1321
partial tag: 0000001010111111
lru: 0000
reuse bit: 1
trace: 1430
valid: 1
********
sampler set details
set index: 66
partial tag: 0000001010111111
lru: 0000
reuse bit: 1
trace: 68
valid: 1
********
sampler set details
set index: 1255
partial tag: 0000000000000000
lru: 0000
reuse bit: 0
trace: 0
valid: 0
********
sampler set details
set index: 0
partial tag: 0000001010111111
lru: 0000
reuse bit: 1
trace: 1184
valid: 1
********
sampler set details
set index: 1189
partial tag: 0000000000000000
lru: 0000
reuse bit: 0
trace: 0
valid: 0
********
sampler set details
set index: 858
partial tag: 0000000000000000
lru: 0000
reuse bit: 0
trace: 0
valid: 0
********
sampler set details
set index: 924
partial tag: 0000000000000000
lru: 0000
reuse bit: 0
trace: 0
valid: 0
********
sampler set details
set index: 990
partial tag: 0000000000110001
lru: 0000
reuse bit: 1
trace: 224
valid: 1
********
sampler set details
set index: 1057
partial tag: 0000000000000000
lru: 0000
reuse bit: 0
trace: 0
valid: 0
********
sampler set details
set index: 1123
partial tag: 0000000000000000
lru: 0000
reuse bit: 0
trace: 0
valid: 0
********
sampler set details
set index: 2047
partial tag: 0000001010111111
lru: 0000
reuse bit: 1
trace: 1028
valid: 1
********
sampler set details
set index: 1981
partial tag: 0000000000000000
lru: 0000
reuse bit: 0
trace: 0
valid: 0
********
sampler set details
set index: 1915
partial tag: 0000000000000000
lru: 0000
reuse bit: 0
trace: 0
valid: 0
********
sampler set details
set index: 792
partial tag: 0000001010111111
lru: 0000
reuse bit: 1
trace: 1981
valid: 1
********
sampler set details
set index: 726
partial tag: 0000000000000000
lru: 0000
reuse bit: 0
trace: 0
valid: 0
********
sampler set details
set index: 660
partial tag: 0000000000000000
lru: 0000
reuse bit: 0
trace: 0
valid: 0
********
sampler set details
set index: 1849
partial tag: 0000000000000000
lru: 0000
reuse bit: 0
trace: 0
valid: 0
********
sampler set details
set index: 594
partial tag: 0000001010111111
lru: 0000
reuse bit: 1
trace: 1981
valid: 1
********
sampler set details
set index: 1783
partial tag: 0000001010111111
lru: 0000
reuse bit: 1
trace: 1776
valid: 1
********
sampler set details
set index: 528
partial tag: 0000000000000000
lru: 0000
reuse bit: 0
trace: 0
valid: 0
********
sampler set details
set index: 1717
partial tag: 0000000000000000
lru: 0000
reuse bit: 0
trace: 0
valid: 0
********
sampler set details
set index: 462
partial tag: 0000001010111111
lru: 0000
reuse bit: 1
trace: 456
valid: 1
********
sampler set details
set index: 1651
partial tag: 0000000000000000
lru: 0000
reuse bit: 0
trace: 0
valid: 0
********
sampler set details
set index: 396
partial tag: 0000000000000000
lru: 0000
reuse bit: 0
trace: 0
valid: 0
********
sampler set details
set index: 1585
partial tag: 0000000000000000
lru: 0000
reuse bit: 0
trace: 0
valid: 0
********
sampler set details
set index: 330
partial tag: 0000000000000000
lru: 0000
reuse bit: 0
trace: 0
valid: 0
********
sampler set details
set index: 1519
partial tag: 0000000000000000
lru: 0000
reuse bit: 0
trace: 0
valid: 0
********
sampler set details
set index: 264
partial tag: 0000000000000000
lru: 0000
reuse bit: 0
trace: 0
valid: 0
********
sampler set details
set index: 1453
partial tag: 0000000000000000
lru: 0000
reuse bit: 0
trace: 0
valid: 0
********
sampler set details
set index: 198
partial tag: 0000000000000000
lru: 0000
reuse bit: 0
trace: 0
valid: 0
********
sampler set details
set index: 1387
partial tag: 0000001010111111
lru: 0000
reuse bit: 1
trace: 1979
valid: 1
********
sampler set details
set index: 132
partial tag: 0000000000000000
lru: 0000
reuse bit: 0
trace: 0
valid: 0
********
sampler set details
set index: 1321
partial tag: 0000001010111111
lru: 0000
reuse bit: 1
trace: 1430
valid: 1
********
sampler set details
set index: 66
partial tag: 0000001010111111
lru: 0000
reuse bit: 1
trace: 68
valid: 1
********
sampler set details
set index: 1255
partial tag: 0000000000000000
lru: 0000
reuse bit: 0
trace: 0
valid: 0
********
sampler set details
set index: 0
partial tag: 0000001010111111
lru: 0000
reuse bit: 1
trace: 1184
valid: 1
********
sampler set details
set index: 1189
partial tag: 0000000000000000
lru: 0000
reuse bit: 0
trace: 0
valid: 0
********
sampler set details
set index: 858
partial tag: 0000000000000000
lru: 0000
reuse bit: 0
trace: 0
valid: 0
********
sampler set details
set index: 924
partial tag: 0000000000000000
lru: 0000
reuse bit: 0
trace: 0
valid: 0
********
sampler set details
set index: 990
partial tag: 0000000000110001
lru: 0000
reuse bit: 1
trace: 224
valid: 1
********
sampler set details
set index: 1057
partial tag: 0000000000000000
lru: 0000
reuse bit: 0
trace: 0
valid: 0
********
sampler set details
set index: 1123
partial tag: 0000000000000000
lru: 0000
reuse bit: 0
trace: 0
valid: 0
********
sampler set details
set index: 2047
partial tag: 0000001010111111
lru: 0000
reuse bit: 1
trace: 1028
valid: 1
********
sampler set details
set index: 1981
partial tag: 0000000000000000
lru: 0000
reuse bit: 0
trace: 0
valid: 0
********
sampler set details
set index: 1915
partial tag: 0000000000000000
lru: 0000
reuse bit: 0
trace: 0
valid: 0
********
sampler set details
set index: 792
partial tag: 0000001010111111
lru: 0000
reuse bit: 1
trace: 1981
valid: 1
********
sampler set details
set index: 726
partial tag: 0000000000000000
lru: 0000
reuse bit: 0
trace: 0
valid: 0
********
sampler set details
set index: 660
partial tag: 0000000000000000
lru: 0000
reuse bit: 0
trace: 0
valid: 0
********
sampler set details
set index: 1849
partial tag: 0000000000000000
lru: 0000
reuse bit: 0
trace: 0
valid: 0
********
sampler set details
set index: 594
partial tag: 0000001010111111
lru: 0000
reuse bit: 1
trace: 1981
valid: 1
********
sampler set details
set index: 1783
partial tag: 0000001010111111
lru: 0000
reuse bit: 1
trace: 1776
valid: 1
********
sampler set details
set index: 528
partial tag: 0000000000000000
lru: 0000
reuse bit: 0
trace: 0
valid: 0
********
sampler set details
set index: 1717
partial tag: 0000000000000000
lru: 0000
reuse bit: 0
trace: 0
valid: 0
********
sampler set details
set index: 462
partial tag: 0000001010111111
lru: 0000
reuse bit: 1
trace: 457
valid: 1
********
sampler set details
set index: 1651
partial tag: 0000000000000000
lru: 0000
reuse bit: 0
trace: 0
valid: 0
********
sampler set details
set index: 396
partial tag: 0000000000000000
lru: 0000
reuse bit: 0
trace: 0
valid: 0
********
sampler set details
set index: 1585
partial tag: 0000000000000000
lru: 0000
reuse bit: 0
trace: 0
valid: 0
********
sampler set details
set index: 330
partial tag: 0000000000000000
lru: 0000
reuse bit: 0
trace: 0
valid: 0
********
sampler set details
set index: 1519
partial tag: 0000000000000000
lru: 0000
reuse bit: 0
trace: 0
valid: 0
********
sampler set details
set index: 264
partial tag: 0000000000000000
lru: 0000
reuse bit: 0
trace: 0
valid: 0
********
sampler set details
set index: 1453
partial tag: 0000000000000000
lru: 0000
reuse bit: 0
trace: 0
valid: 0
********
sampler set details
set index: 198
partial tag: 0000000000000000
lru: 0000
reuse bit: 0
trace: 0
valid: 0
********
sampler set details
set index: 1387
partial tag: 0000001010111111
lru: 0000
reuse bit: 1
trace: 1979
valid: 1
********
sampler set details
set index: 132
partial tag: 0000000000000000
lru: 0000
reuse bit: 0
trace: 0
valid: 0
********
sampler set details
set index: 1321
partial tag: 0000001010111111
lru: 0000
reuse bit: 1
trace: 1430
valid: 1
********
sampler set details
set index: 66
partial tag: 0000001010111111
lru: 0000
reuse bit: 1
trace: 68
valid: 1
********
sampler set details
set index: 1255
partial tag: 0000000000000000
lru: 0000
reuse bit: 0
trace: 0
valid: 0
********
sampler set details
set index: 0
partial tag: 0000001010111111
lru: 0000
reuse bit: 1
trace: 1184
valid: 1
********
sampler set details
set index: 1189
partial tag: 0000000000000000
lru: 0000
reuse bit: 0
trace: 0
valid: 0
********
sampler set details
set index: 858
partial tag: 0000000000000000
lru: 0000
reuse bit: 0
trace: 0
valid: 0
********
sampler set details
set index: 924
partial tag: 0000000000000000
lru: 0000
reuse bit: 0
trace: 0
valid: 0
********
sampler set details
set index: 990
partial tag: 0000000000110001
lru: 0000
reuse bit: 1
trace: 224
valid: 1
********
sampler set details
set index: 1057
partial tag: 0000000000000000
lru: 0000
reuse bit: 0
trace: 0
valid: 0
********
sampler set details
set index: 1123
partial tag: 0000000000000000
lru: 0000
reuse bit: 0
trace: 0
valid: 0
********
sampler set details
set index: 2047
partial tag: 0000001010111111
lru: 0000
reuse bit: 1
trace: 1028
valid: 1
********
sampler set details
set index: 1981
partial tag: 0000000000000000
lru: 0000
reuse bit: 0
trace: 0
valid: 0
********
sampler set details
set index: 1915
partial tag: 0000000000000000
lru: 0000
reuse bit: 0
trace: 0
valid: 0
********
sampler set details
set index: 792
partial tag: 0000001010111111
lru: 0000
reuse bit: 1
trace: 1981
valid: 1
********
sampler set details
set index: 726
partial tag: 0000000000000000
lru: 0000
reuse bit: 0
trace: 0
valid: 0
********
sampler set details
set index: 660
partial tag: 0000000000000000
lru: 0000
reuse bit: 0
trace: 0
valid: 0
********
sampler set details
set index: 1849
partial tag: 0000000000000000
lru: 0000
reuse bit: 0
trace: 0
valid: 0
********
sampler set details
set index: 594
partial tag: 0000001010111111
lru: 0000
reuse bit: 1
trace: 1981
valid: 1
********
sampler set details
set index: 1783
partial tag: 0000001010111111
lru: 0000
reuse bit: 1
trace: 1776
valid: 1
********
sampler set details
set index: 528
partial tag: 0000000000000000
lru: 0000
reuse bit: 0
trace: 0
valid: 0
********
sampler set details
set index: 1717
partial tag: 0000000000000000
lru: 0000
reuse bit: 0
trace: 0
valid: 0
********
sampler set details
set index: 462
partial tag: 0000001010111111
lru: 0000
reuse bit: 1
trace: 457
valid: 1
********
sampler set details
set index: 1651
partial tag: 0000000000000000
lru: 0000
reuse bit: 0
trace: 0
valid: 0
********
sampler set details
set index: 396
partial tag: 0000000000000000
lru: 0000
reuse bit: 0
trace: 0
valid: 0
********
sampler set details
set index: 1585
partial tag: 0000000000000000
lru: 0000
reuse bit: 0
trace: 0
valid: 0
********
sampler set details
set index: 330
partial tag: 0000001010111111
lru: 0000
reuse bit: 1
trace: 336
valid: 1
********
sampler set details
set index: 1519
partial tag: 0000000000000000
lru: 0000
reuse bit: 0
trace: 0
valid: 0
********
sampler set details
set index: 264
partial tag: 0000000000000000
lru: 0000
reuse bit: 0
trace: 0
valid: 0
********
sampler set details
set index: 1453
partial tag: 0000000000000000
lru: 0000
reuse bit: 0
trace: 0
valid: 0
********
sampler set details
set index: 198
partial tag: 0000000000000000
lru: 0000
reuse bit: 0
trace: 0
valid: 0
********
sampler set details
set index: 1387
partial tag: 0000001010111111
lru: 0000
reuse bit: 1
trace: 1979
valid: 1
********
sampler set details
set index: 132
partial tag: 0000000000000000
lru: 0000
reuse bit: 0
trace: 0
valid: 0
********
sampler set details
set index: 1321
partial tag: 0000001010111111
lru: 0000
reuse bit: 1
trace: 1430
valid: 1
********
sampler set details
set index: 66
partial tag: 0000001010111111
lru: 0000
reuse bit: 1
trace: 68
valid: 1
********
sampler set details
set index: 1255
partial tag: 0000000000000000
lru: 0000
reuse bit: 0
trace: 0
valid: 0
********
sampler set details
set index: 0
partial tag: 0000001010111111
lru: 0000
reuse bit: 1
trace: 1184
valid: 1
********
sampler set details
set index: 1189
partial tag: 0000000000000000
lru: 0000
reuse bit: 0
trace: 0
valid: 0
********
sampler set details
set index: 858
partial tag: 0000000000000000
lru: 0000
reuse bit: 0
trace: 0
valid: 0
********
sampler set details
set index: 924
partial tag: 0000000000000000
lru: 0000
reuse bit: 0
trace: 0
valid: 0
********
sampler set details
set index: 990
partial tag: 0000000000110001
lru: 0000
reuse bit: 1
trace: 224
valid: 1
********
sampler set details
set index: 1057
partial tag: 0000000000000000
lru: 0000
reuse bit: 0
trace: 0
valid: 0
********
sampler set details
set index: 1123
partial tag: 0000000000000000
lru: 0000
reuse bit: 0
trace: 0
valid: 0
********
sampler set details
set index: 2047
partial tag: 0000001010111111
lru: 0000
reuse bit: 1
trace: 1028
valid: 1
********
sampler set details
set index: 1981
partial tag: 0000000000000000
lru: 0000
reuse bit: 0
trace: 0
valid: 0
********
sampler set details
set index: 1915
partial tag: 0000000000000000
lru: 0000
reuse bit: 0
trace: 0
valid: 0
********
sampler set details
set index: 792
partial tag: 0000001010111111
lru: 0000
reuse bit: 1
trace: 1981
valid: 1
********
sampler set details
set index: 726
partial tag: 0000000000000000
lru: 0000
reuse bit: 0
trace: 0
valid: 0
********
sampler set details
set index: 660
partial tag: 0000000000000000
lru: 0000
reuse bit: 0
trace: 0
valid: 0
********
sampler set details
set index: 1849
partial tag: 0000000000000000
lru: 0000
reuse bit: 0
trace: 0
valid: 0
********
sampler set details
set index: 594
partial tag: 0000001010111111
lru: 0000
reuse bit: 1
trace: 1981
valid: 1
********
sampler set details
set index: 1783
partial tag: 0000001010111111
lru: 0000
reuse bit: 1
trace: 1776
valid: 1
********
sampler set details
set index: 528
partial tag: 0000000000000000
lru: 0000
reuse bit: 0
trace: 0
valid: 0
********
sampler set details
set index: 1717
partial tag: 0000000000000000
lru: 0000
reuse bit: 0
trace: 0
valid: 0
********
sampler set details
set index: 462
partial tag: 0000001010111111
lru: 0000
reuse bit: 1
trace: 457
valid: 1
********
sampler set details
set index: 1651
partial tag: 0000000000000000
lru: 0000
reuse bit: 0
trace: 0
valid: 0
********
sampler set details
set index: 396
partial tag: 0000000000000000
lru: 0000
reuse bit: 0
trace: 0
valid: 0
********
sampler set details
set index: 1585
partial tag: 0000000000000000
lru: 0000
reuse bit: 0
trace: 0
valid: 0
********
sampler set details
set index: 330
partial tag: 0000001010111111
lru: 0000
reuse bit: 1
trace: 336
valid: 1
********
sampler set details
set index: 1519
partial tag: 0000000000000000
lru: 0000
reuse bit: 0
trace: 0
valid: 0
********
sampler set details
set index: 264
partial tag: 0000000000000000
lru: 0000
reuse bit: 0
trace: 0
valid: 0
********
sampler set details
set index: 1453
partial tag: 0000000000000000
lru: 0000
reuse bit: 0
trace: 0
valid: 0
********
sampler set details
set index: 198
partial tag: 0000000000000000
lru: 0000
reuse bit: 0
trace: 0
valid: 0
********
sampler set details
set index: 1387
partial tag: 0000001010111111
lru: 0000
reuse bit: 1
trace: 1979
valid: 1
********
sampler set details
set index: 132
partial tag: 0000000000000000
lru: 0000
reuse bit: 0
trace: 0
valid: 0
********
sampler set details
set index: 1321
partial tag: 0000001010111111
lru: 0000
reuse bit: 1
trace: 1430
valid: 1
********
sampler set details
set index: 66
partial tag: 0000001010111111
lru: 0000
reuse bit: 1
trace: 68
valid: 1
********
sampler set details
set index: 1255
partial tag: 0000000000000000
lru: 0000
reuse bit: 0
trace: 0
valid: 0
********
sampler set details
set index: 0
partial tag: 0000001010111111
lru: 0000
reuse bit: 1
trace: 1184
valid: 1
********
sampler set details
set index: 1189
partial tag: 0000000000000000
lru: 0000
reuse bit: 0
trace: 0
valid: 0
********
sampler set details
set index: 858
partial tag: 0000000000000000
lru: 0000
reuse bit: 0
trace: 0
valid: 0
********
sampler set details
set index: 924
partial tag: 0000000000000000
lru: 0000
reuse bit: 0
trace: 0
valid: 0
********
sampler set details
set index: 990
partial tag: 0000000000110001
lru: 0000
reuse bit: 1
trace: 224
valid: 1
********
sampler set details
set index: 1057
partial tag: 0000001010111111
lru: 0000
reuse bit: 1
trace: 1981
valid: 1
********
sampler set details
set index: 1123
partial tag: 0000000000000000
lru: 0000
reuse bit: 0
trace: 0
valid: 0
********
sampler set details
set index: 2047
partial tag: 0000001010111111
lru: 0000
reuse bit: 1
trace: 1028
valid: 1
********
sampler set details
set index: 1981
partial tag: 0000000000000000
lru: 0000
reuse bit: 0
trace: 0
valid: 0
********
sampler set details
set index: 1915
partial tag: 0000000000000000
lru: 0000
reuse bit: 0
trace: 0
valid: 0
********
sampler set details
set index: 792
partial tag: 0000001010111111
lru: 0000
reuse bit: 1
trace: 1981
valid: 1
********
sampler set details
set index: 726
partial tag: 0000000000000000
lru: 0000
reuse bit: 0
trace: 0
valid: 0
********
sampler set details
set index: 660
partial tag: 0000000000000000
lru: 0000
reuse bit: 0
trace: 0
valid: 0
********
sampler set details
set index: 1849
partial tag: 0000000110111110
lru: 0000
reuse bit: 1
trace: 1824
valid: 1
********
sampler set details
set index: 594
partial tag: 0000001010111111
lru: 0000
reuse bit: 1
trace: 1981
valid: 1
********
sampler set details
set index: 1783
partial tag: 0000001010111111
lru: 0000
reuse bit: 1
trace: 1776
valid: 1
********
sampler set details
set index: 528
partial tag: 0000000000000000
lru: 0000
reuse bit: 0
trace: 0
valid: 0
********
sampler set details
set index: 1717
partial tag: 0000000000000000
lru: 0000
reuse bit: 0
trace: 0
valid: 0
********
sampler set details
set index: 462
partial tag: 0000001010111111
lru: 0000
reuse bit: 1
trace: 457
valid: 1
********
sampler set details
set index: 1651
partial tag: 0000000000000000
lru: 0000
reuse bit: 0
trace: 0
valid: 0
********
sampler set details
set index: 396
partial tag: 0000000000000000
lru: 0000
reuse bit: 0
trace: 0
valid: 0
********
sampler set details
set index: 1585
partial tag: 0000000000000000
lru: 0000
reuse bit: 0
trace: 0
valid: 0
********
sampler set details
set index: 330
partial tag: 0000001010111111
lru: 0000
reuse bit: 1
trace: 336
valid: 1
********
sampler set details
set index: 1519
partial tag: 0000000000000000
lru: 0000
reuse bit: 0
trace: 0
valid: 0
********
sampler set details
set index: 264
partial tag: 0000000000000000
lru: 0000
reuse bit: 0
trace: 0
valid: 0
********
sampler set details
set index: 1453
partial tag: 0000000000000000
lru: 0000
reuse bit: 0
trace: 0
valid: 0
********
sampler set details
set index: 198
partial tag: 0000000000000000
lru: 0000
reuse bit: 0
trace: 0
valid: 0
********
sampler set details
set index: 1387
partial tag: 0000001010111111
lru: 0000
reuse bit: 1
trace: 1979
valid: 1
********
sampler set details
set index: 132
partial tag: 0000000000000000
lru: 0000
reuse bit: 0
trace: 0
valid: 0
********
sampler set details
set index: 1321
partial tag: 0000001010111111
lru: 0000
reuse bit: 1
trace: 1430
valid: 1
********
sampler set details
set index: 66
partial tag: 0000001010111111
lru: 0000
reuse bit: 1
trace: 68
valid: 1
********
sampler set details
set index: 1255
partial tag: 0000000000000000
lru: 0000
reuse bit: 0
trace: 0
valid: 0
********
sampler set details
set index: 0
partial tag: 0000001010111111
lru: 0000
reuse bit: 1
trace: 1184
valid: 1
********
sampler set details
set index: 1189
partial tag: 0000000000000000
lru: 0000
reuse bit: 0
trace: 0
valid: 0
********
sampler set details
set index: 858
partial tag: 0000000000000000
lru: 0000
reuse bit: 0
trace: 0
valid: 0
********
sampler set details
set index: 924
partial tag: 0000000000000000
lru: 0000
reuse bit: 0
trace: 0
valid: 0
********
sampler set details
set index: 990
partial tag: 0000000000110001
lru: 0000
reuse bit: 1
trace: 224
valid: 1
********
sampler set details
set index: 1057
partial tag: 0000001010111111
lru: 0000
reuse bit: 1
trace: 1981
valid: 1
********
sampler set details
set index: 1123
partial tag: 0000000000000000
lru: 0000
reuse bit: 0
trace: 0
valid: 0
********
sampler set details
set index: 2047
partial tag: 0000001010111111
lru: 0000
reuse bit: 1
trace: 1028
valid: 1
********
sampler set details
set index: 1981
partial tag: 0000001010111111
lru: 0000
reuse bit: 1
trace: 1384
valid: 1
********
sampler set details
set index: 1915
partial tag: 0000000000000000
lru: 0000
reuse bit: 0
trace: 0
valid: 0
********
sampler set details
set index: 792
partial tag: 0000001010111111
lru: 0000
reuse bit: 1
trace: 1981
valid: 1
********
sampler set details
set index: 726
partial tag: 0000000000000000
lru: 0000
reuse bit: 0
trace: 0
valid: 0
********
sampler set details
set index: 660
partial tag: 0000000000000000
lru: 0000
reuse bit: 0
trace: 0
valid: 0
********
sampler set details
set index: 1849
partial tag: 0000000110111110
lru: 0000
reuse bit: 1
trace: 1824
valid: 1
********
sampler set details
set index: 594
partial tag: 0000001010111111
lru: 0000
reuse bit: 1
trace: 1981
valid: 1
********
sampler set details
set index: 1783
partial tag: 0000001010111111
lru: 0000
reuse bit: 1
trace: 1776
valid: 1
********
sampler set details
set index: 528
partial tag: 0000000000000000
lru: 0000
reuse bit: 0
trace: 0
valid: 0
********
sampler set details
set index: 1717
partial tag: 0000000000000000
lru: 0000
reuse bit: 0
trace: 0
valid: 0
********
sampler set details
set index: 462
partial tag: 0000001010111111
lru: 0000
reuse bit: 1
trace: 457
valid: 1
********
sampler set details
set index: 1651
partial tag: 0000000000000000
lru: 0000
reuse bit: 0
trace: 0
valid: 0
********
sampler set details
set index: 396
partial tag: 0000000000000000
lru: 0000
reuse bit: 0
trace: 0
valid: 0
********
sampler set details
set index: 1585
partial tag: 0000000000000000
lru: 0000
reuse bit: 0
trace: 0
valid: 0
********
sampler set details
set index: 330
partial tag: 0000001010111111
lru: 0000
reuse bit: 1
trace: 336
valid: 1
********
sampler set details
set index: 1519
partial tag: 0000000000000000
lru: 0000
reuse bit: 0
trace: 0
valid: 0
********
sampler set details
set index: 264
partial tag: 0000000000000000
lru: 0000
reuse bit: 0
trace: 0
valid: 0
********
sampler set details
set index: 1453
partial tag: 0000000000000000
lru: 0000
reuse bit: 0
trace: 0
valid: 0
********
sampler set details
set index: 198
partial tag: 0000000000000000
lru: 0000
reuse bit: 0
trace: 0
valid: 0
********
sampler set details
set index: 1387
partial tag: 0000001010111111
lru: 0000
reuse bit: 1
trace: 1979
valid: 1
********
sampler set details
set index: 132
partial tag: 0000000000000000
lru: 0000
reuse bit: 0
trace: 0
valid: 0
********
sampler set details
set index: 1321
partial tag: 0000001010111111
lru: 0000
reuse bit: 1
trace: 1430
valid: 1
********
sampler set details
set index: 66
partial tag: 0000001010111111
lru: 0000
reuse bit: 1
trace: 68
valid: 1
********
sampler set details
set index: 1255
partial tag: 0000000000000000
lru: 0000
reuse bit: 0
trace: 0
valid: 0
********
sampler set details
set index: 0
partial tag: 0000001010111111
lru: 0000
reuse bit: 1
trace: 1184
valid: 1
********
sampler set details
set index: 1189
partial tag: 0000000000000000
lru: 0000
reuse bit: 0
trace: 0
valid: 0
********
sampler set details
set index: 858
partial tag: 0000000000000000
lru: 0000
reuse bit: 0
trace: 0
valid: 0
********
sampler set details
set index: 924
partial tag: 0000000000000000
lru: 0000
reuse bit: 0
trace: 0
valid: 0
********
sampler set details
set index: 990
partial tag: 0000000000110001
lru: 0000
reuse bit: 1
trace: 224
valid: 1
********
sampler set details
set index: 1057
partial tag: 0000001010111111
lru: 0000
reuse bit: 1
trace: 1981
valid: 1
********
sampler set details
set index: 1123
partial tag: 0000000000000000
lru: 0000
reuse bit: 0
trace: 0
valid: 0
********
sampler set details
set index: 2047
partial tag: 0000001010111111
lru: 0000
reuse bit: 1
trace: 2017
valid: 1
********
sampler set details
set index: 1981
partial tag: 0000001010111111
lru: 0000
reuse bit: 1
trace: 1384
valid: 1
********
sampler set details
set index: 1915
partial tag: 0000000000000000
lru: 0000
reuse bit: 0
trace: 0
valid: 0
********
sampler set details
set index: 792
partial tag: 0000001010111111
lru: 0000
reuse bit: 1
trace: 1981
valid: 1
********
sampler set details
set index: 726
partial tag: 0000000000000000
lru: 0000
reuse bit: 0
trace: 0
valid: 0
********
sampler set details
set index: 660
partial tag: 0000000000000000
lru: 0000
reuse bit: 0
trace: 0
valid: 0
********
sampler set details
set index: 1849
partial tag: 0000000110111110
lru: 0000
reuse bit: 1
trace: 1824
valid: 1
********
sampler set details
set index: 594
partial tag: 0000001010111111
lru: 0000
reuse bit: 1
trace: 1981
valid: 1
********
sampler set details
set index: 1783
partial tag: 0000001010111111
lru: 0000
reuse bit: 1
trace: 1776
valid: 1
********
sampler set details
set index: 528
partial tag: 0000000000000000
lru: 0000
reuse bit: 0
trace: 0
valid: 0
********
sampler set details
set index: 1717
partial tag: 0000000000000000
lru: 0000
reuse bit: 0
trace: 0
valid: 0
********
sampler set details
set index: 462
partial tag: 0000001010111111
lru: 0000
reuse bit: 1
trace: 457
valid: 1
********
sampler set details
set index: 1651
partial tag: 0000000000000000
lru: 0000
reuse bit: 0
trace: 0
valid: 0
********
sampler set details
set index: 396
partial tag: 0000000000000000
lru: 0000
reuse bit: 0
trace: 0
valid: 0
********
sampler set details
set index: 1585
partial tag: 0000000000000000
lru: 0000
reuse bit: 0
trace: 0
valid: 0
********
sampler set details
set index: 330
partial tag: 0000001010111111
lru: 0000
reuse bit: 1
trace: 336
valid: 1
********
sampler set details
set index: 1519
partial tag: 0000000000000000
lru: 0000
reuse bit: 0
trace: 0
valid: 0
********
sampler set details
set index: 264
partial tag: 0000000000000000
lru: 0000
reuse bit: 0
trace: 0
valid: 0
********
sampler set details
set index: 1453
partial tag: 0000000000000000
lru: 0000
reuse bit: 0
trace: 0
valid: 0
********
sampler set details
set index: 198
partial tag: 0000000000000000
lru: 0000
reuse bit: 0
trace: 0
valid: 0
********
sampler set details
set index: 1387
partial tag: 0000001010111111
lru: 0000
reuse bit: 1
trace: 1979
valid: 1
********
sampler set details
set index: 132
partial tag: 0000000000000000
lru: 0000
reuse bit: 0
trace: 0
valid: 0
********
sampler set details
set index: 1321
partial tag: 0000001010111111
lru: 0000
reuse bit: 1
trace: 1430
valid: 1
********
sampler set details
set index: 66
partial tag: 0000001010111111
lru: 0000
reuse bit: 1
trace: 68
valid: 1
********
sampler set details
set index: 1255
partial tag: 0000000000000000
lru: 0000
reuse bit: 0
trace: 0
valid: 0
********
sampler set details
set index: 0
partial tag: 0000001010111111
lru: 0000
reuse bit: 1
trace: 1184
valid: 1
********
sampler set details
set index: 1189
partial tag: 0000000000000000
lru: 0000
reuse bit: 0
trace: 0
valid: 0
********
sampler set details
set index: 858
partial tag: 0000000000000000
lru: 0000
reuse bit: 0
trace: 0
valid: 0
********
sampler set details
set index: 924
partial tag: 0000000000000000
lru: 0000
reuse bit: 0
trace: 0
valid: 0
********
sampler set details
set index: 990
partial tag: 0000000000110001
lru: 0000
reuse bit: 1
trace: 224
valid: 1
********
sampler set details
set index: 1057
partial tag: 0000001010111111
lru: 0000
reuse bit: 1
trace: 1981
valid: 1
********
sampler set details
set index: 1123
partial tag: 0000000000000000
lru: 0000
reuse bit: 0
trace: 0
valid: 0
********
sampler set details
set index: 2047
partial tag: 0000001010111111
lru: 0000
reuse bit: 1
trace: 2017
valid: 1
********
sampler set details
set index: 1981
partial tag: 0000001010111111
lru: 0000
reuse bit: 1
trace: 1384
valid: 1
********
sampler set details
set index: 1915
partial tag: 0000000000000000
lru: 0000
reuse bit: 0
trace: 0
valid: 0
********
sampler set details
set index: 792
partial tag: 0000001010111111
lru: 0000
reuse bit: 1
trace: 1981
valid: 1
********
sampler set details
set index: 726
partial tag: 0000000000000000
lru: 0000
reuse bit: 0
trace: 0
valid: 0
********
sampler set details
set index: 660
partial tag: 0000000000000000
lru: 0000
reuse bit: 0
trace: 0
valid: 0
********
sampler set details
set index: 1849
partial tag: 0000000110111110
lru: 0000
reuse bit: 1
trace: 1824
valid: 1
********
sampler set details
set index: 594
partial tag: 0000001010111111
lru: 0000
reuse bit: 1
trace: 1981
valid: 1
********
sampler set details
set index: 1783
partial tag: 0000001010111111
lru: 0000
reuse bit: 1
trace: 1776
valid: 1
********
sampler set details
set index: 528
partial tag: 0000000000000000
lru: 0000
reuse bit: 0
trace: 0
valid: 0
********
sampler set details
set index: 1717
partial tag: 0000000000000000
lru: 0000
reuse bit: 0
trace: 0
valid: 0
********
sampler set details
set index: 462
partial tag: 0000001010111111
lru: 0000
reuse bit: 1
trace: 457
valid: 1
********
sampler set details
set index: 1651
partial tag: 0000000000000000
lru: 0000
reuse bit: 0
trace: 0
valid: 0
********
sampler set details
set index: 396
partial tag: 0000000000000000
lru: 0000
reuse bit: 0
trace: 0
valid: 0
********
sampler set details
set index: 1585
partial tag: 0000000000000000
lru: 0000
reuse bit: 0
trace: 0
valid: 0
********
sampler set details
set index: 330
partial tag: 0000001010111111
lru: 0000
reuse bit: 1
trace: 336
valid: 1
********
sampler set details
set index: 1519
partial tag: 0000000000000000
lru: 0000
reuse bit: 0
trace: 0
valid: 0
********
sampler set details
set index: 264
partial tag: 0000000000000000
lru: 0000
reuse bit: 0
trace: 0
valid: 0
********
sampler set details
set index: 1453
partial tag: 0000000000000000
lru: 0000
reuse bit: 0
trace: 0
valid: 0
********
sampler set details
set index: 198
partial tag: 0000000000000000
lru: 0000
reuse bit: 0
trace: 0
valid: 0
********
sampler set details
set index: 1387
partial tag: 0000001010111111
lru: 0000
reuse bit: 1
trace: 1979
valid: 1
********
sampler set details
set index: 132
partial tag: 0000000000000000
lru: 0000
reuse bit: 0
trace: 0
valid: 0
********
sampler set details
set index: 1321
partial tag: 0000001010111111
lru: 0000
reuse bit: 1
trace: 1430
valid: 1
********
sampler set details
set index: 66
partial tag: 0000001010111111
lru: 0000
reuse bit: 1
trace: 68
valid: 1
********
sampler set details
set index: 1255
partial tag: 0000001010111111
lru: 0000
reuse bit: 1
trace: 1482
valid: 1
********
sampler set details
set index: 0
partial tag: 0000001010111111
lru: 0000
reuse bit: 1
trace: 1184
valid: 1
********
sampler set details
set index: 1189
partial tag: 0000000000000000
lru: 0000
reuse bit: 0
trace: 0
valid: 0
********
sampler set details
set index: 858
partial tag: 0000000000000000
lru: 0000
reuse bit: 0
trace: 0
valid: 0
********
sampler set details
set index: 924
partial tag: 0000000000000000
lru: 0000
reuse bit: 0
trace: 0
valid: 0
********
sampler set details
set index: 990
partial tag: 0000000000110001
lru: 0000
reuse bit: 1
trace: 224
valid: 1
********
sampler set details
set index: 1057
partial tag: 0000001010111111
lru: 0000
reuse bit: 1
trace: 1981
valid: 1
********
sampler set details
set index: 1123
partial tag: 0000000000000000
lru: 0000
reuse bit: 0
trace: 0
valid: 0
********
sampler set details
set index: 2047
partial tag: 0000001010111111
lru: 0000
reuse bit: 1
trace: 2017
valid: 1
********
sampler set details
set index: 1981
partial tag: 0000001010111111
lru: 0000
reuse bit: 1
trace: 1384
valid: 1
********
sampler set details
set index: 1915
partial tag: 0000000000000000
lru: 0000
reuse bit: 0
trace: 0
valid: 0
********
sampler set details
set index: 792
partial tag: 0000001010111111
lru: 0000
reuse bit: 1
trace: 1981
valid: 1
********
sampler set details
set index: 726
partial tag: 0000000000000000
lru: 0000
reuse bit: 0
trace: 0
valid: 0
********
sampler set details
set index: 660
partial tag: 0000000000000000
lru: 0000
reuse bit: 0
trace: 0
valid: 0
********
sampler set details
set index: 1849
partial tag: 0000000110111110
lru: 0000
reuse bit: 1
trace: 1824
valid: 1
********
sampler set details
set index: 594
partial tag: 0000001010111111
lru: 0000
reuse bit: 1
trace: 1981
valid: 1
********
sampler set details
set index: 1783
partial tag: 0000001010111111
lru: 0000
reuse bit: 1
trace: 1776
valid: 1
********
sampler set details
set index: 528
partial tag: 0000000000000000
lru: 0000
reuse bit: 0
trace: 0
valid: 0
********
sampler set details
set index: 1717
partial tag: 0000000000000000
lru: 0000
reuse bit: 0
trace: 0
valid: 0
********
sampler set details
set index: 462
partial tag: 0000001010111111
lru: 0000
reuse bit: 1
trace: 457
valid: 1
********
sampler set details
set index: 1651
partial tag: 0000000000000000
lru: 0000
reuse bit: 0
trace: 0
valid: 0
********
sampler set details
set index: 396
partial tag: 0000000000000000
lru: 0000
reuse bit: 0
trace: 0
valid: 0
********
sampler set details
set index: 1585
partial tag: 0000001010111111
lru: 0000
reuse bit: 1
trace: 1576
valid: 1
********
sampler set details
set index: 330
partial tag: 0000001010111111
lru: 0000
reuse bit: 1
trace: 336
valid: 1
********
sampler set details
set index: 1519
partial tag: 0000000000000000
lru: 0000
reuse bit: 0
trace: 0
valid: 0
********
sampler set details
set index: 264
partial tag: 0000000000000000
lru: 0000
reuse bit: 0
trace: 0
valid: 0
********
sampler set details
set index: 1453
partial tag: 0000000000000000
lru: 0000
reuse bit: 0
trace: 0
valid: 0
********
sampler set details
set index: 198
partial tag: 0000000000000000
lru: 0000
reuse bit: 0
trace: 0
valid: 0
********
sampler set details
set index: 1387
partial tag: 0000001010111111
lru: 0000
reuse bit: 1
trace: 1979
valid: 1
********
sampler set details
set index: 132
partial tag: 0000000000000000
lru: 0000
reuse bit: 0
trace: 0
valid: 0
********
sampler set details
set index: 1321
partial tag: 0000001010111111
lru: 0000
reuse bit: 1
trace: 1430
valid: 1
********
sampler set details
set index: 66
partial tag: 0000001010111111
lru: 0000
reuse bit: 1
trace: 68
valid: 1
********
sampler set details
set index: 1255
partial tag: 0000001010111111
lru: 0000
reuse bit: 1
trace: 1482
valid: 1
********
sampler set details
set index: 0
partial tag: 0000001010111111
lru: 0000
reuse bit: 1
trace: 1184
valid: 1
********
sampler set details
set index: 1189
partial tag: 0000000000000000
lru: 0000
reuse bit: 0
trace: 0
valid: 0
********
sampler set details
set index: 858
partial tag: 0000000000000000
lru: 0000
reuse bit: 0
trace: 0
valid: 0
********
sampler set details
set index: 924
partial tag: 0000000000000000
lru: 0000
reuse bit: 0
trace: 0
valid: 0
********
sampler set details
set index: 990
partial tag: 0000000000110001
lru: 0000
reuse bit: 1
trace: 224
valid: 1
********
sampler set details
set index: 1057
partial tag: 0000001010111111
lru: 0000
reuse bit: 1
trace: 1981
valid: 1
********
sampler set details
set index: 1123
partial tag: 0000000000000000
lru: 0000
reuse bit: 0
trace: 0
valid: 0
********
sampler set details
set index: 2047
partial tag: 0000001010111111
lru: 0000
reuse bit: 1
trace: 2017
valid: 1
********
sampler set details
set index: 1981
partial tag: 0000001010111111
lru: 0000
reuse bit: 1
trace: 1384
valid: 1
********
sampler set details
set index: 1915
partial tag: 0000000000000000
lru: 0000
reuse bit: 0
trace: 0
valid: 0
********
sampler set details
set index: 792
partial tag: 0000001010111111
lru: 0000
reuse bit: 1
trace: 1981
valid: 1
********
sampler set details
set index: 726
partial tag: 0000000000000000
lru: 0000
reuse bit: 0
trace: 0
valid: 0
********
sampler set details
set index: 660
partial tag: 0000000000000000
lru: 0000
reuse bit: 0
trace: 0
valid: 0
********
sampler set details
set index: 1849
partial tag: 0000000110111110
lru: 0000
reuse bit: 1
trace: 1824
valid: 1
********
sampler set details
set index: 594
partial tag: 0000001010111111
lru: 0000
reuse bit: 1
trace: 1981
valid: 1
********
sampler set details
set index: 1783
partial tag: 0000001010111111
lru: 0000
reuse bit: 1
trace: 1776
valid: 1
********
sampler set details
set index: 528
partial tag: 0000000000000000
lru: 0000
reuse bit: 0
trace: 0
valid: 0
********
sampler set details
set index: 1717
partial tag: 0000000000000000
lru: 0000
reuse bit: 0
trace: 0
valid: 0
********
sampler set details
set index: 462
partial tag: 0000001010111111
lru: 0000
reuse bit: 1
trace: 457
valid: 1
********
sampler set details
set index: 1651
partial tag: 0000000000000000
lru: 0000
reuse bit: 0
trace: 0
valid: 0
********
sampler set details
set index: 396
partial tag: 0000000000000000
lru: 0000
reuse bit: 0
trace: 0
valid: 0
********
[...]
lru: 0011
reuse bit: 1
trace: 68
valid: 1
********
sampler set details
set index: 1255
partial tag: 0000001010111111
lru: 0001
reuse bit: 1
trace: 1482
valid: 1
********
sampler set details
set index: 0
partial tag: 0000001010111111
lru: 0001
reuse bit: 1
trace: 1184
valid: 1
********
sampler set details
set index: 1189
partial tag: 0000001001011101
lru: 0001
reuse bit: 1
trace: 1668
valid: 1
********
sampler set details
set index: 858
partial tag: 0000000011110010
lru: 0001
reuse bit: 1
trace: 1028
valid: 1
********
sampler set details
set index: 924
partial tag: 0000000111011100
lru: 0010
reuse bit: 1
trace: 1028
valid: 1
********
sampler set details
set index: 990
partial tag: 0000000000110001
lru: 0001
reuse bit: 1
trace: 224
valid: 1
********
sampler set details
set index: 1057
partial tag: 0000001010111111
lru: 0000
reuse bit: 1
trace: 807
valid: 1
********
sampler set details
set index: 1123
partial tag: 0000000111011100
lru: 0010
reuse bit: 1
trace: 1028
valid: 1
********
sampler set details
set index: 2047
partial tag: 0000001010111111
lru: 0011
reuse bit: 1
trace: 2017
valid: 1
********
sampler set details
set index: 1981
partial tag: 0000001010111111
lru: 0100
reuse bit: 1
trace: 1384
valid: 1
********
sampler set details
set index: 1915
partial tag: 0000001010011000
lru: 0000
reuse bit: 1
trace: 780
valid: 1
********
sampler set details
set index: 792
partial tag: 0000001010111111
lru: 0001
reuse bit: 1
trace: 1981
valid: 1
********
sampler set details
set index: 726
partial tag: 0000001011110010
lru: 0100
reuse bit: 1
trace: 1668
valid: 1
********
sampler set details
set index: 660
partial tag: 0000001010011000
lru: 0000
reuse bit: 1
trace: 1384
valid: 1
********
sampler set details
set index: 1849
partial tag: 0000000110111110
lru: 0001
reuse bit: 1
trace: 1824
valid: 1
********
sampler set details
set index: 594
partial tag: 0000001010111111
lru: 0001
reuse bit: 1
trace: 1981
valid: 1
********
sampler set details
set index: 1783
partial tag: 0000001010111111
lru: 0011
reuse bit: 1
trace: 1776
valid: 1
********
sampler set details
set index: 528
partial tag: 0000000000000000
lru: 0000
reuse bit: 0
trace: 0
valid: 0
********
sampler set details
set index: 1717
partial tag: 0000001010111111
lru: 0000
reuse bit: 1
trace: 780
valid: 1
********
sampler set details
set index: 462
partial tag: 0000001010111111
lru: 0011
reuse bit: 1
trace: 457
valid: 1
********
sampler set details
set index: 1651
partial tag: 0000001010011000
lru: 0001
reuse bit: 1
trace: 780
valid: 1
********
sampler set details
set index: 396
partial tag: 0000000011110010
lru: 0010
reuse bit: 1
trace: 1454
valid: 1
********
sampler set details
set index: 1585
partial tag: 0000001010111111
lru: 0010
reuse bit: 1
trace: 1576
valid: 1
********
sampler set details
set index: 330
partial tag: 0000001010111111
lru: 0001
reuse bit: 1
trace: 336
valid: 1
********
sampler set details
set index: 1519
partial tag: 0000001010011000
lru: 0001
reuse bit: 1
trace: 780
valid: 1
********
sampler set details
set index: 264
partial tag: 0000001001011101
lru: 0000
reuse bit: 1
trace: 1384
valid: 1
********
sampler set details
set index: 1453
partial tag: 0000001010011000
lru: 0010
reuse bit: 1
trace: 13
valid: 1
********
sampler set details
set index: 198
partial tag: 0000001011110010
lru: 0001
reuse bit: 1
trace: 13
valid: 1
********
sampler set details
set index: 1387
partial tag: 0000001010111111
lru: 0010
reuse bit: 1
trace: 1979
valid: 1
********
sampler set details
set index: 132
partial tag: 0000000100110111
lru: 0100
reuse bit: 1
trace: 1454
valid: 1
********
sampler set details
set index: 1321
partial tag: 0000001010111111
lru: 0000
reuse bit: 1
trace: 34
valid: 1
********
sampler set details
set index: 66
partial tag: 0000001010111111
lru: 0011
reuse bit: 1
trace: 68
valid: 1
********
sampler set details
set index: 1255
partial tag: 0000001010111111
lru: 0001
reuse bit: 1
trace: 1482
valid: 1
********
sampler set details
set index: 0
partial tag: 0000001010111111
lru: 0001
reuse bit: 1
trace: 1184
valid: 1
********
sampler set details
set index: 1189
partial tag: 0000001001011101
lru: 0001
reuse bit: 1
trace: 1668
valid: 1
********
sampler set details
set index: 858
partial tag: 0000000011110010
lru: 0001
reuse bit: 1
trace: 1028
valid: 1
********
sampler set details
set index: 924
partial tag: 0000000111011100
lru: 0010
reuse bit: 1
trace: 1028
valid: 1
********
sampler set details
set index: 990
partial tag: 0000000000110001
lru: 0001
reuse bit: 1
trace: 224
valid: 1
********
sampler set details
set index: 1057
partial tag: 0000001010111111
lru: 0000
reuse bit: 1
trace: 807
valid: 1
********
sampler set details
set index: 1123
partial tag: 0000000111011100
lru: 0010
reuse bit: 1
trace: 1028
valid: 1
********
sampler set details
set index: 2047
partial tag: 0000001010111111
lru: 0011
reuse bit: 1
trace: 2017
valid: 1
********
sampler set details
set index: 1981
partial tag: 0000001010111111
lru: 0100
reuse bit: 1
trace: 1384
valid: 1
********
sampler set details
set index: 1915
partial tag: 0000001010011000
lru: 0000
reuse bit: 1
trace: 780
valid: 1
********
sampler set details
set index: 792
partial tag: 0000001010111111
lru: 0001
reuse bit: 1
trace: 1981
valid: 1
********
sampler set details
set index: 726
partial tag: 0000001011110010
lru: 0100
reuse bit: 1
trace: 1668
valid: 1
********
sampler set details
set index: 660
partial tag: 0000001010011000
lru: 0000
reuse bit: 1
trace: 1384
valid: 1
********
sampler set details
set index: 1849
partial tag: 0000000110111110
lru: 0001
reuse bit: 1
trace: 1824
valid: 1
********
sampler set details
set index: 594
partial tag: 0000001010111111
lru: 0001
reuse bit: 1
trace: 1981
valid: 1
********
sampler set details
set index: 1783
partial tag: 0000001010111111
lru: 0011
reuse bit: 1
trace: 1776
valid: 1
********
sampler set details
set index: 528
partial tag: 0000000000000000
lru: 0000
reuse bit: 0
trace: 0
valid: 0
********
sampler set details
set index: 1717
partial tag: 0000001010111111
lru: 0000
reuse bit: 1
trace: 780
valid: 1
********
sampler set details
set index: 462
partial tag: 0000001010111111
lru: 0011
reuse bit: 1
trace: 457
valid: 1
********
sampler set details
set index: 1651
partial tag: 0000001010011000
lru: 0001
reuse bit: 1
trace: 780
valid: 1
********
sampler set details
set index: 396
partial tag: 0000000011110010
lru: 0010
reuse bit: 1
trace: 1454
valid: 1
********
sampler set details
set index: 1585
partial tag: 0000001010111111
lru: 0010
reuse bit: 1
trace: 1576
valid: 1
********
sampler set details
set index: 330
partial tag: 0000001010111111
lru: 0001
reuse bit: 1
trace: 336
valid: 1
********
sampler set details
set index: 1519
partial tag: 0000001010011000
lru: 0001
reuse bit: 1
trace: 780
valid: 1
********
sampler set details
set index: 264
partial tag: 0000001001011101
lru: 0000
reuse bit: 1
trace: 1384
valid: 1
********
sampler set details
set index: 1453
partial tag: 0000001010011000
lru: 0010
reuse bit: 1
trace: 13
valid: 1
********
sampler set details
set index: 198
partial tag: 0000001011110010
lru: 0010
reuse bit: 1
trace: 13
valid: 1
********
sampler set details
set index: 1387
partial tag: 0000001010111111
lru: 0010
reuse bit: 1
trace: 1979
valid: 1
********
sampler set details
set index: 132
partial tag: 0000000100110111
lru: 0100
reuse bit: 1
trace: 1454
valid: 1
********
sampler set details
set index: 1321
partial tag: 0000001010111111
lru: 0000
reuse bit: 1
trace: 34
valid: 1
********
sampler set details
set index: 66
partial tag: 0000001010111111
lru: 0011
reuse bit: 1
trace: 68
valid: 1
********
sampler set details
set index: 1255
partial tag: 0000001010111111
lru: 0001
reuse bit: 1
trace: 1482
valid: 1
********
sampler set details
set index: 0
partial tag: 0000001010111111
lru: 0001
reuse bit: 1
trace: 1184
valid: 1
********
sampler set details
set index: 1189
partial tag: 0000001001011101
lru: 0001
reuse bit: 1
trace: 1668
valid: 1
********
sampler set details
set index: 858
partial tag: 0000000011110010
lru: 0001
reuse bit: 1
trace: 1028
valid: 1
********
sampler set details
set index: 924
partial tag: 0000000111011100
lru: 0010
reuse bit: 1
trace: 1028
valid: 1
********
sampler set details
set index: 990
partial tag: 0000000000110001
lru: 0001
reuse bit: 1
trace: 224
valid: 1
********
sampler set details
set index: 1057
partial tag: 0000001010111111
lru: 0000
reuse bit: 1
trace: 807
valid: 1
********
sampler set details
set index: 1123
partial tag: 0000000111011100
lru: 0010
reuse bit: 1
trace: 1028
valid: 1
********
sampler set details
set index: 2047
partial tag: 0000001010111111
lru: 0011
reuse bit: 1
trace: 2017
valid: 1
********
sampler set details
set index: 1981
partial tag: 0000001010111111
lru: 0100
reuse bit: 1
trace: 1384
valid: 1
********
sampler set details
set index: 1915
partial tag: 0000001010011000
lru: 0000
reuse bit: 1
trace: 780
valid: 1
********
sampler set details
set index: 792
partial tag: 0000001010111111
lru: 0001
reuse bit: 1
trace: 1981
valid: 1
********
sampler set details
set index: 726
partial tag: 0000001011110010
lru: 0101
reuse bit: 1
trace: 1668
valid: 1
********
sampler set details
set index: 660
partial tag: 0000001010011000
lru: 0000
reuse bit: 1
trace: 1384
valid: 1
********
sampler set details
set index: 1849
partial tag: 0000000110111110
lru: 0001
reuse bit: 1
trace: 1824
valid: 1
********
sampler set details
set index: 594
partial tag: 0000001010111111
lru: 0001
reuse bit: 1
trace: 1981
valid: 1
********
sampler set details
set index: 1783
partial tag: 0000001010111111
lru: 0011
reuse bit: 1
trace: 1776
valid: 1
********
sampler set details
set index: 528
partial tag: 0000000000000000
lru: 0000
reuse bit: 0
trace: 0
valid: 0
********
sampler set details
set index: 1717
partial tag: 0000001010111111
lru: 0000
reuse bit: 1
trace: 780
valid: 1
********
sampler set details
set index: 462
partial tag: 0000001010111111
lru: 0011
reuse bit: 1
trace: 457
valid: 1
********
sampler set details
set index: 1651
partial tag: 0000001010011000
lru: 0001
reuse bit: 1
trace: 780
valid: 1
********
sampler set details
set index: 396
partial tag: 0000000011110010
lru: 0010
reuse bit: 1
trace: 1454
valid: 1
********
sampler set details
set index: 1585
partial tag: 0000001010111111
lru: 0010
reuse bit: 1
trace: 1576
valid: 1
********
sampler set details
set index: 330
partial tag: 0000001010111111
lru: 0001
reuse bit: 1
trace: 336
valid: 1
********
sampler set details
set index: 1519
partial tag: 0000001010011000
lru: 0001
reuse bit: 1
trace: 780
valid: 1
********
sampler set details
set index: 264
partial tag: 0000001001011101
lru: 0000
reuse bit: 1
trace: 1384
valid: 1
********
sampler set details
set index: 1453
partial tag: 0000001010011000
lru: 0010
reuse bit: 1
trace: 13
valid: 1
********
sampler set details
set index: 198
partial tag: 0000001011110010
lru: 0010
reuse bit: 1
trace: 13
valid: 1
********
sampler set details
set index: 1387
partial tag: 0000001010111111
lru: 0010
reuse bit: 1
trace: 1979
valid: 1
********
sampler set details
set index: 132
partial tag: 0000000100110111
lru: 0100
reuse bit: 1
trace: 1454
valid: 1
********
sampler set details
set index: 1321
partial tag: 0000001010111111
lru: 0000
reuse bit: 1
trace: 34
valid: 1
********
sampler set details
set index: 66
partial tag: 0000001010111111
lru: 0011
reuse bit: 1
trace: 68
valid: 1
********
sampler set details
set index: 1255
partial tag: 0000001010111111
lru: 0001
reuse bit: 1
trace: 1482
valid: 1
********
sampler set details
set index: 0
partial tag: 0000001010111111
lru: 0001
reuse bit: 1
trace: 1184
valid: 1
********
sampler set details
set index: 1189
partial tag: 0000001001011101
lru: 0001
reuse bit: 1
trace: 1668
valid: 1
********
sampler set details
set index: 858
partial tag: 0000000011110010
lru: 0001
reuse bit: 1
trace: 1028
valid: 1
********
sampler set details
set index: 924
partial tag: 0000000111011100
lru: 0010
reuse bit: 1
trace: 1028
valid: 1
********
sampler set details
set index: 990
partial tag: 0000000000110001
lru: 0001
reuse bit: 1
trace: 224
valid: 1
********
sampler set details
set index: 1057
partial tag: 0000001010111111
lru: 0000
reuse bit: 1
trace: 807
valid: 1
********
sampler set details
set index: 1123
partial tag: 0000000111011100
lru: 0010
reuse bit: 1
trace: 1028
valid: 1
********
sampler set details
set index: 2047
partial tag: 0000001010111111
lru: 0011
reuse bit: 1
trace: 2017
valid: 1
********
sampler set details
set index: 1981
partial tag: 0000001010111111
lru: 0100
reuse bit: 1
trace: 1384
valid: 1
********
sampler set details
set index: 1915
partial tag: 0000001010011000
lru: 0000
reuse bit: 1
trace: 780
valid: 1
********
sampler set details
set index: 792
partial tag: 0000001010111111
lru: 0001
reuse bit: 1
trace: 1981
valid: 1
********
sampler set details
set index: 726
partial tag: 0000001011110010
lru: 0101
reuse bit: 1
trace: 1668
valid: 1
********
sampler set details
set index: 660
partial tag: 0000001010011000
lru: 0000
reuse bit: 1
trace: 1384
valid: 1
********
sampler set details
set index: 1849
partial tag: 0000000110111110
lru: 0001
reuse bit: 1
trace: 1824
valid: 1
********
sampler set details
set index: 594
partial tag: 0000001010111111
lru: 0001
reuse bit: 1
trace: 1981
valid: 1
********
sampler set details
set index: 1783
partial tag: 0000001010111111
lru: 0011
reuse bit: 1
trace: 1776
valid: 1
********
sampler set details
set index: 528
partial tag: 0000000000000000
lru: 0000
reuse bit: 0
trace: 0
valid: 0
********
sampler set details
set index: 1717
partial tag: 0000001010111111
lru: 0000
reuse bit: 1
trace: 780
valid: 1
********
sampler set details
set index: 462
partial tag: 0000001010111111
lru: 0011
reuse bit: 1
trace: 457
valid: 1
********
sampler set details
set index: 1651
partial tag: 0000001010011000
lru: 0001
reuse bit: 1
trace: 780
valid: 1
********
sampler set details
set index: 396
partial tag: 0000000011110010
lru: 0010
reuse bit: 1
trace: 1454
valid: 1
********
sampler set details
set index: 1585
partial tag: 0000001010111111
lru: 0010
reuse bit: 1
trace: 1576
valid: 1
********
sampler set details
set index: 330
partial tag: 0000001010111111
lru: 0001
reuse bit: 1
trace: 336
valid: 1
********
sampler set details
set index: 1519
partial tag: 0000001010011000
lru: 0001
reuse bit: 1
trace: 780
valid: 1
********
sampler set details
set index: 264
partial tag: 0000001001011101
lru: 0000
reuse bit: 1
trace: 1384
valid: 1
********
sampler set details
set index: 1453
partial tag: 0000001010011000
lru: 0010
reuse bit: 1
trace: 13
valid: 1
********
sampler set details
set index: 198
partial tag: 0000001011110010
lru: 0010
reuse bit: 1
trace: 13
valid: 1
********
sampler set details
set index: 1387
partial tag: 0000001010111111
lru: 0010
reuse bit: 1
trace: 1979
valid: 1
********
sampler set details
set index: 132
partial tag: 0000000100110111
lru: 0100
reuse bit: 1
trace: 1454
valid: 1
********
sampler set details
set index: 1321
partial tag: 0000001010111111
lru: 0001
reuse bit: 1
trace: 34
valid: 1
********
sampler set details
set index: 66
partial tag: 0000001010111111
lru: 0011
reuse bit: 1
trace: 68
valid: 1
********
sampler set details
set index: 1255
partial tag: 0000001010111111
lru: 0001
reuse bit: 1
trace: 1482
valid: 1
********
sampler set details
set index: 0
partial tag: 0000001010111111
lru: 0001
reuse bit: 1
trace: 1184
valid: 1
********
sampler set details
set index: 1189
partial tag: 0000001001011101
lru: 0001
reuse bit: 1
trace: 1668
valid: 1
********
sampler set details
set index: 858
partial tag: 0000000011110010
lru: 0001
reuse bit: 1
trace: 1028
valid: 1
********
sampler set details
set index: 924
partial tag: 0000000111011100
lru: 0010
reuse bit: 1
trace: 1028
valid: 1
********
sampler set details
set index: 990
partial tag: 0000000000110001
lru: 0001
reuse bit: 1
trace: 224
valid: 1
********
sampler set details
set index: 1057
partial tag: 0000001010111111
lru: 0000
reuse bit: 1
trace: 807
valid: 1
********
sampler set details
set index: 1123
partial tag: 0000000111011100
lru: 0010
reuse bit: 1
trace: 1028
valid: 1
********
Finished CPU 0 instructions: 10000003 cycles: 18234796 cumulative IPC: 0.548402 (Simulation time: 0 hr 0 min 12 sec) 

CPU 0 Branch Prediction Accuracy: 87.5023% MPKI: 23.611

ChampSim completed all CPUs

Region of Interest Statistics

CPU 0 cumulative IPC: 0.548402 instructions: 10000003 cycles: 18234796
L1D TOTAL     ACCESS:    2601366  HIT:    2587299  MISS:      14067
L1D LOAD      ACCESS:    1791877  HIT:    1782320  MISS:       9557
L1D RFO       ACCESS:     809489  HIT:     804979  MISS:       4510
L1D PREFETCH  ACCESS:          0  HIT:          0  MISS:          0
L1D WRITEBACK ACCESS:          0  HIT:          0  MISS:          0
L1D PREFETCH  REQUESTED:          0  ISSUED:          0  FILLED:          0  USEFUL:          0  USELESS:          0
L1I TOTAL     ACCESS:    2288145  HIT:    2287683  MISS:        462
L1I LOAD      ACCESS:    2288145  HIT:    2287683  MISS:        462
L1I RFO       ACCESS:          0  HIT:          0  MISS:          0
L1I PREFETCH  ACCESS:          0  HIT:          0  MISS:          0
L1I WRITEBACK ACCESS:          0  HIT:          0  MISS:          0
L1I PREFETCH  REQUESTED:          0  ISSUED:          0  FILLED:          0  USEFUL:          0  USELESS:          0
L2C TOTAL     ACCESS:      22338  HIT:      17715  MISS:       4623
L2C LOAD      ACCESS:      10019  HIT:       5921  MISS:       4098
L2C RFO       ACCESS:       4509  HIT:       3992  MISS:        517
L2C PREFETCH  ACCESS:          0  HIT:          0  MISS:          0
L2C WRITEBACK ACCESS:       7810  HIT:       7802  MISS:          8
L2C PREFETCH  REQUESTED:          0  ISSUED:          0  FILLED:          0  USEFUL:          0  USELESS:          0
LLC TOTAL     ACCESS:       5741  HIT:       1229  MISS:       4512
LLC LOAD      ACCESS:       4098  HIT:         96  MISS:       4002
LLC RFO       ACCESS:        517  HIT:          7  MISS:        510
LLC PREFETCH  ACCESS:          0  HIT:          0  MISS:          0
LLC WRITEBACK ACCESS:       1126  HIT:       1126  MISS:          0
LLC PREFETCH  REQUESTED:          0  ISSUED:          0  FILLED:          0  USEFUL:          0  USELESS:          0
DTLB TOTAL     ACCESS:    2363339  HIT:    2347322  MISS:      16017
DTLB LOAD      ACCESS:    1702027  HIT:    1688206  MISS:      13821
DTLB RFO       ACCESS:     661312  HIT:     659116  MISS:       2196
DTLB PREFETCH  ACCESS:          0  HIT:          0  MISS:          0
DTLB WRITEBACK ACCESS:          0  HIT:          0  MISS:          0
DTLB PREFETCH  REQUESTED:          0  ISSUED:          0  FILLED:          0  USEFUL:          0  USELESS:          0
ITLB TOTAL     ACCESS:    1676933  HIT:    1676933  MISS:          0
ITLB LOAD      ACCESS:    1676933  HIT:    1676933  MISS:          0
ITLB RFO       ACCESS:          0  HIT:          0  MISS:          0
ITLB PREFETCH  ACCESS:          0  HIT:          0  MISS:          0
ITLB WRITEBACK ACCESS:          0  HIT:          0  MISS:          0
ITLB PREFETCH  REQUESTED:          0  ISSUED:          0  FILLED:          0  USEFUL:          0  USELESS:          0
STLB TOTAL     ACCESS:      16017  HIT:      12629  MISS:       3388
STLB LOAD      ACCESS:      13821  HIT:      10457  MISS:       3364
STLB RFO       ACCESS:       2196  HIT:       2172  MISS:         24
STLB PREFETCH  ACCESS:          0  HIT:          0  MISS:          0
STLB WRITEBACK ACCESS:          0  HIT:          0  MISS:          0
STLB PREFETCH  REQUESTED:          0  ISSUED:          0  FILLED:          0  USEFUL:          0  USELESS:          0
Major fault: 0 Minor fault: 3607

Invalid block evictions: 5882
DBP Decisions: 0
Mockingjay Decisions: 0
Writeback MKJ Decisions: 0

DB Predictions in [0,9]: 
0 6078
3 1
9 1


DRAM Statistics
 CHANNEL 0
 RQ ROW_BUFFER_HIT:       1137  ROW_BUFFER_MISS:       3375
 DBUS_CONGESTED:         60
 WQ ROW_BUFFER_HIT:          0  ROW_BUFFER_MISS:          0  FULL:          0

 AVG_CONGESTED_CYCLE: 13
