
*** ChampSim Multicore Out-of-Order Simulator ***

Warmup Instructions: 1000000
Simulation Instructions: 10000000
Number of CPUs: 1
LLC sets: 2048
LLC ways: 16
Off-chip DRAM Size: 4096 MB Channels: 1 Width: 64-bit Data Rate: 1600 MT/s

CPU 0 runs ./tracefiles/xalancbmk_748B.trace.xz
CPU 0 Bimodal branch predictor
sampler set details
set index: 2047
partial tag: 0000000000000000
lru: 0000
reuse bit: 0
trace: 0
valid: 0
********
sampler set details
set index: 1981
partial tag: 0000000000000000
lru: 0000
reuse bit: 0
trace: 0
valid: 0
********
sampler set details
set index: 1915
partial tag: 0000000000000000
lru: 0000
reuse bit: 0
trace: 0
valid: 0
********
sampler set details
set index: 792
partial tag: 0000000000000000
lru: 0000
reuse bit: 0
trace: 0
valid: 0
********
sampler set details
set index: 726
partial tag: 0000000000000000
lru: 0000
reuse bit: 0
trace: 0
valid: 0
********
sampler set details
set index: 660
partial tag: 0000000000000000
lru: 0000
reuse bit: 0
trace: 0
valid: 0
********
sampler set details
set index: 1849
partial tag: 0000000000000000
lru: 0000
reuse bit: 0
trace: 0
valid: 0
********
sampler set details
set index: 594
partial tag: 0000000000000000
lru: 0000
reuse bit: 0
trace: 0
valid: 0
********
sampler set details
set index: 1783
partial tag: 0000000000000000
lru: 0000
reuse bit: 0
trace: 0
valid: 0
********
sampler set details
set index: 528
partial tag: 0000000000000000
lru: 0000
reuse bit: 0
trace: 0
valid: 0
********
sampler set details
set index: 1717
partial tag: 0000000000000000
lru: 0000
reuse bit: 0
trace: 0
valid: 0
********
sampler set details
set index: 462
partial tag: 0000000000000000
lru: 0000
reuse bit: 0
trace: 0
valid: 0
********
sampler set details
set index: 1651
partial tag: 0000000000000000
lru: 0000
reuse bit: 0
trace: 0
valid: 0
********
sampler set details
set index: 396
partial tag: 0000000000000000
lru: 0000
reuse bit: 0
trace: 0
valid: 0
********
sampler set details
set index: 1585
partial tag: 0000000000000000
lru: 0000
reuse bit: 0
trace: 0
valid: 0
********
sampler set details
set index: 330
partial tag: 0000000000000000
lru: 0000
reuse bit: 0
trace: 0
valid: 0
********
sampler set details
set index: 1519
partial tag: 0000000000000000
lru: 0000
reuse bit: 0
trace: 0
valid: 0
********
sampler set details
set index: 264
partial tag: 0000000000000000
lru: 0000
reuse bit: 0
trace: 0
valid: 0
********
sampler set details
set index: 1453
partial tag: 0000000000000000
lru: 0000
reuse bit: 0
trace: 0
valid: 0
********
sampler set details
set index: 198
partial tag: 0000000000000000
lru: 0000
reuse bit: 0
trace: 0
valid: 0
********
sampler set details
set index: 1387
partial tag: 0000000000000000
lru: 0000
reuse bit: 0
trace: 0
valid: 0
********
sampler set details
set index: 132
partial tag: 0000000000000000
lru: 0000
reuse bit: 0
trace: 0
valid: 0
********
sampler set details
set index: 1321
partial tag: 0000000000000000
lru: 0000
reuse bit: 0
trace: 0
valid: 0
********
sampler set details
set index: 66
partial tag: 0000000000000000
lru: 0000
reuse bit: 0
trace: 0
valid: 0
********
sampler set details
set index: 1255
partial tag: 0000000000000000
lru: 0000
reuse bit: 0
trace: 0
valid: 0
********
sampler set details
set index: 0
partial tag: 0000000000000000
lru: 0000
reuse bit: 0
trace: 0
valid: 0
********
sampler set details
set index: 1189
partial tag: 0000000000000000
lru: 0000
reuse bit: 0
trace: 0
valid: 0
********
sampler set details
set index: 858
partial tag: 0000000000000000
lru: 0000
reuse bit: 0
trace: 0
valid: 0
********
sampler set details
set index: 924
partial tag: 0000000000000000
lru: 0000
reuse bit: 0
trace: 0
valid: 0
********
sampler set details
set index: 990
partial tag: 0000000000000000
lru: 0000
reuse bit: 0
trace: 0
valid: 0
********
sampler set details
set index: 1057
partial tag: 0000000000000000
lru: 0000
reuse bit: 0
trace: 0
valid: 0
********
sampler set details
set index: 1123
partial tag: 0000000000000000
lru: 0000
reuse bit: 0
trace: 0
valid: 0
********
sampler set details
set index: 2047
partial tag: 0000000000000000
lru: 0000
reuse bit: 0
trace: 0
valid: 0
********
sampler set details
set index: 1981
partial tag: 0000000000000000
lru: 0000
reuse bit: 0
trace: 0
valid: 0
********
sampler set details
set index: 1915
partial tag: 0000000000000000
lru: 0000
reuse bit: 0
trace: 0
valid: 0
********
sampler set details
set index: 792
partial tag: 0000000000000000
lru: 0000
reuse bit: 0
trace: 0
valid: 0
********
sampler set details
set index: 726
partial tag: 0000000000000000
lru: 0000
reuse bit: 0
trace: 0
valid: 0
********
sampler set details
set index: 660
partial tag: 0000000000000000
lru: 0000
reuse bit: 0
trace: 0
valid: 0
********
sampler set details
set index: 1849
partial tag: 0000000000000000
lru: 0000
reuse bit: 0
trace: 0
valid: 0
********
sampler set details
set index: 594
partial tag: 0000000000000000
lru: 0000
reuse bit: 0
trace: 0
valid: 0
********
sampler set details
set index: 1783
partial tag: 0000000000000000
lru: 0000
reuse bit: 0
trace: 0
valid: 0
********
sampler set details
set index: 528
partial tag: 0000000000000000
lru: 0000
reuse bit: 0
trace: 0
valid: 0
********
sampler set details
set index: 1717
partial tag: 0000000000000000
lru: 0000
reuse bit: 0
trace: 0
valid: 0
********
sampler set details
set index: 462
partial tag: 0000000000000000
lru: 0000
reuse bit: 0
trace: 0
valid: 0
********
sampler set details
set index: 1651
partial tag: 0000000000000000
lru: 0000
reuse bit: 0
trace: 0
valid: 0
********
sampler set details
set index: 396
partial tag: 0000000000000000
lru: 0000
reuse bit: 0
trace: 0
valid: 0
********
sampler set details
set index: 1585
partial tag: 0000000000000000
lru: 0000
reuse bit: 0
trace: 0
valid: 0
********
sampler set details
set index: 330
partial tag: 0000000000000000
lru: 0000
reuse bit: 0
trace: 0
valid: 0
********
sampler set details
set index: 1519
partial tag: 0000000000000000
lru: 0000
reuse bit: 0
trace: 0
valid: 0
********
sampler set details
set index: 264
partial tag: 0000000000000000
lru: 0000
reuse bit: 0
trace: 0
valid: 0
********
sampler set details
set index: 1453
partial tag: 0000000000000000
lru: 0000
reuse bit: 0
trace: 0
valid: 0
********
sampler set details
set index: 198
partial tag: 0000000000000000
lru: 0000
reuse bit: 0
trace: 0
valid: 0
********
sampler set details
set index: 1387
partial tag: 0000000000000000
lru: 0000
reuse bit: 0
trace: 0
valid: 0
********
sampler set details
set index: 132
partial tag: 0000000000000000
lru: 0000
reuse bit: 0
trace: 0
valid: 0
********
sampler set details
set index: 1321
partial tag: 0000000000000000
lru: 0000
reuse bit: 0
trace: 0
valid: 0
********
sampler set details
set index: 66
partial tag: 0000000000000000
lru: 0000
reuse bit: 0
trace: 0
valid: 0
********
sampler set details
set index: 1255
partial tag: 0000000000000000
lru: 0000
reuse bit: 0
trace: 0
valid: 0
********
sampler set details
set index: 0
partial tag: 0000000000000000
lru: 0000
reuse bit: 0
trace: 0
valid: 0
********
sampler set details
set index: 1189
partial tag: 0000000000000000
lru: 0000
reuse bit: 0
trace: 0
valid: 0
********
sampler set details
set index: 858
partial tag: 0000000111010011
lru: 0000
reuse bit: 1
trace: 856
valid: 1
********
sampler set details
set index: 924
partial tag: 0000000000000000
lru: 0000
reuse bit: 0
trace: 0
valid: 0
********
sampler set details
set index: 990
partial tag: 0000000000000000
lru: 0000
reuse bit: 0
trace: 0
valid: 0
********
sampler set details
set index: 1057
partial tag: 0000000000000000
lru: 0000
reuse bit: 0
trace: 0
valid: 0
********
sampler set details
set index: 1123
partial tag: 0000000000000000
lru: 0000
reuse bit: 0
trace: 0
valid: 0
********
sampler set details
set index: 2047
partial tag: 0000000000000000
lru: 0000
reuse bit: 0
trace: 0
valid: 0
********
sampler set details
set index: 1981
partial tag: 0000000000000000
lru: 0000
reuse bit: 0
trace: 0
valid: 0
********
sampler set details
set index: 1915
partial tag: 0000000000000000
lru: 0000
reuse bit: 0
trace: 0
valid: 0
********
sampler set details
set index: 792
partial tag: 0000000000000000
lru: 0000
reuse bit: 0
trace: 0
valid: 0
********
sampler set details
set index: 726
partial tag: 0000000000000000
lru: 0000
reuse bit: 0
trace: 0
valid: 0
********
sampler set details
set index: 660
partial tag: 0000000000000000
lru: 0000
reuse bit: 0
trace: 0
valid: 0
********
sampler set details
set index: 1849
partial tag: 0000000000000000
lru: 0000
reuse bit: 0
trace: 0
valid: 0
********
sampler set details
set index: 594
partial tag: 0000000000000000
lru: 0000
reuse bit: 0
trace: 0
valid: 0
********
sampler set details
set index: 1783
partial tag: 0000000000000000
lru: 0000
reuse bit: 0
trace: 0
valid: 0
********
sampler set details
set index: 528
partial tag: 0000000000000000
lru: 0000
reuse bit: 0
trace: 0
valid: 0
********
sampler set details
set index: 1717
partial tag: 0000000000000000
lru: 0000
reuse bit: 0
trace: 0
valid: 0
********
sampler set details
set index: 462
partial tag: 0000000000000000
lru: 0000
reuse bit: 0
trace: 0
valid: 0
********
sampler set details
set index: 1651
partial tag: 0000000000000000
lru: 0000
reuse bit: 0
trace: 0
valid: 0
********
sampler set details
set index: 396
partial tag: 0000000000000000
lru: 0000
reuse bit: 0
trace: 0
valid: 0
********
sampler set details
set index: 1585
partial tag: 0000000000000000
lru: 0000
reuse bit: 0
trace: 0
valid: 0
********
sampler set details
set index: 330
partial tag: 0000000000000000
lru: 0000
reuse bit: 0
trace: 0
valid: 0
********
sampler set details
set index: 1519
partial tag: 0000000000000000
lru: 0000
reuse bit: 0
trace: 0
valid: 0
********
sampler set details
set index: 264
partial tag: 0000000000000000
lru: 0000
reuse bit: 0
trace: 0
valid: 0
********
sampler set details
set index: 1453
partial tag: 0000000000000000
lru: 0000
reuse bit: 0
trace: 0
valid: 0
********
sampler set details
set index: 198
partial tag: 0000000000000000
lru: 0000
reuse bit: 0
trace: 0
valid: 0
********
sampler set details
set index: 1387
partial tag: 0000000000000000
lru: 0000
reuse bit: 0
trace: 0
valid: 0
********
sampler set details
set index: 132
partial tag: 0000000000000000
lru: 0000
reuse bit: 0
trace: 0
valid: 0
********
sampler set details
set index: 1321
partial tag: 0000000000000000
lru: 0000
reuse bit: 0
trace: 0
valid: 0
********
sampler set details
set index: 66
partial tag: 0000000000000000
lru: 0000
reuse bit: 0
trace: 0
valid: 0
********
sampler set details
set index: 1255
partial tag: 0000000000000000
lru: 0000
reuse bit: 0
trace: 0
valid: 0
********
sampler set details
set index: 0
partial tag: 0000000000000000
lru: 0000
reuse bit: 0
trace: 0
valid: 0
********
sampler set details
set index: 1189
partial tag: 0000000111010011
lru: 0000
reuse bit: 1
trace: 904
valid: 1
********
sampler set details
set index: 858
partial tag: 0000000111010011
lru: 0000
reuse bit: 1
trace: 856
valid: 1
********
sampler set details
set index: 924
partial tag: 0000000000000000
lru: 0000
reuse bit: 0
trace: 0
valid: 0
********
sampler set details
set index: 990
partial tag: 0000000000000000
lru: 0000
reuse bit: 0
trace: 0
valid: 0
********
sampler set details
set index: 1057
partial tag: 0000000000000000
lru: 0000
reuse bit: 0
trace: 0
valid: 0
********
sampler set details
set index: 1123
partial tag: 0000000000000000
lru: 0000
reuse bit: 0
trace: 0
valid: 0
********
sampler set details
set index: 2047
partial tag: 0000000000000000
lru: 0000
reuse bit: 0
trace: 0
valid: 0
********
sampler set details
set index: 1981
partial tag: 0000000000000000
lru: 0000
reuse bit: 0
trace: 0
valid: 0
********
sampler set details
set index: 1915
partial tag: 0000000000000000
lru: 0000
reuse bit: 0
trace: 0
valid: 0
********
sampler set details
set index: 792
partial tag: 0000000111010011
lru: 0000
reuse bit: 1
trace: 768
valid: 1
********
sampler set details
set index: 726
partial tag: 0000000000000000
lru: 0000
reuse bit: 0
trace: 0
valid: 0
********
sampler set details
set index: 660
partial tag: 0000000000000000
lru: 0000
reuse bit: 0
trace: 0
valid: 0
********
sampler set details
set index: 1849
partial tag: 0000000000000000
lru: 0000
reuse bit: 0
trace: 0
valid: 0
********
sampler set details
set index: 594
partial tag: 0000000000000000
lru: 0000
reuse bit: 0
trace: 0
valid: 0
********
sampler set details
set index: 1783
partial tag: 0000000000000000
lru: 0000
reuse bit: 0
trace: 0
valid: 0
********
sampler set details
set index: 528
partial tag: 0000000000000000
lru: 0000
reuse bit: 0
trace: 0
valid: 0
********
sampler set details
set index: 1717
partial tag: 0000000000000000
lru: 0000
reuse bit: 0
trace: 0
valid: 0
********
sampler set details
set index: 462
partial tag: 0000000000000000
lru: 0000
reuse bit: 0
trace: 0
valid: 0
********
sampler set details
set index: 1651
partial tag: 0000000000000000
lru: 0000
reuse bit: 0
trace: 0
valid: 0
********
sampler set details
set index: 396
partial tag: 0000000000000000
lru: 0000
reuse bit: 0
trace: 0
valid: 0
********
sampler set details
set index: 1585
partial tag: 0000000000000000
lru: 0000
reuse bit: 0
trace: 0
valid: 0
********
sampler set details
set index: 330
partial tag: 0000000000000000
lru: 0000
reuse bit: 0
trace: 0
valid: 0
********
sampler set details
set index: 1519
partial tag: 0000000000000000
lru: 0000
reuse bit: 0
trace: 0
valid: 0
********
sampler set details
set index: 264
partial tag: 0000000000000000
lru: 0000
reuse bit: 0
trace: 0
valid: 0
********
sampler set details
set index: 1453
partial tag: 0000000000000000
lru: 0000
reuse bit: 0
trace: 0
valid: 0
********
sampler set details
set index: 198
partial tag: 0000000000000000
lru: 0000
reuse bit: 0
trace: 0
valid: 0
********
sampler set details
set index: 1387
partial tag: 0000000000000000
lru: 0000
reuse bit: 0
trace: 0
valid: 0
********
sampler set details
set index: 132
partial tag: 0000000000000000
lru: 0000
reuse bit: 0
trace: 0
valid: 0
********
sampler set details
set index: 1321
partial tag: 0000000000000000
lru: 0000
reuse bit: 0
trace: 0
valid: 0
********
sampler set details
set index: 66
partial tag: 0000000000000000
lru: 0000
reuse bit: 0
trace: 0
valid: 0
********
sampler set details
set index: 1255
partial tag: 0000000000000000
lru: 0000
reuse bit: 0
trace: 0
valid: 0
********
sampler set details
set index: 0
partial tag: 0000000000000000
lru: 0000
reuse bit: 0
trace: 0
valid: 0
********
sampler set details
set index: 1189
partial tag: 0000000111010011
lru: 0000
reuse bit: 1
trace: 904
valid: 1
********
sampler set details
set index: 858
partial tag: 0000000111010011
lru: 0000
reuse bit: 1
trace: 856
valid: 1
********
sampler set details
set index: 924
partial tag: 0000000000000000
lru: 0000
reuse bit: 0
trace: 0
valid: 0
********
sampler set details
set index: 990
partial tag: 0000000000000000
lru: 0000
reuse bit: 0
trace: 0
valid: 0
********
sampler set details
set index: 1057
partial tag: 0000000000000000
lru: 0000
reuse bit: 0
trace: 0
valid: 0
********
sampler set details
set index: 1123
partial tag: 0000000000000000
lru: 0000
reuse bit: 0
trace: 0
valid: 0
********
sampler set details
set index: 2047
partial tag: 0000000000000000
lru: 0000
reuse bit: 0
trace: 0
valid: 0
********
sampler set details
set index: 1981
partial tag: 0000000000000000
lru: 0000
reuse bit: 0
trace: 0
valid: 0
********
sampler set details
set index: 1915
partial tag: 0000000000000000
lru: 0000
reuse bit: 0
trace: 0
valid: 0
********
sampler set details
set index: 792
partial tag: 0000000111010011
lru: 0000
reuse bit: 1
trace: 768
valid: 1
********
sampler set details
set index: 726
partial tag: 0000000000000000
lru: 0000
reuse bit: 0
trace: 0
valid: 0
********
sampler set details
set index: 660
partial tag: 0000000000000000
lru: 0000
reuse bit: 0
trace: 0
valid: 0
********
sampler set details
set index: 1849
partial tag: 0000000000000000
lru: 0000
reuse bit: 0
trace: 0
valid: 0
********
sampler set details
set index: 594
partial tag: 0000000000000000
lru: 0000
reuse bit: 0
trace: 0
valid: 0
********
sampler set details
set index: 1783
partial tag: 0000000000000000
lru: 0000
reuse bit: 0
trace: 0
valid: 0
********
sampler set details
set index: 528
partial tag: 0000000000000000
lru: 0000
reuse bit: 0
trace: 0
valid: 0
********
sampler set details
set index: 1717
partial tag: 0000000000000000
lru: 0000
reuse bit: 0
trace: 0
valid: 0
********
sampler set details
set index: 462
partial tag: 0000000111010011
lru: 0000
reuse bit: 1
trace: 739
valid: 1
********
sampler set details
set index: 1651
partial tag: 0000000000000000
lru: 0000
reuse bit: 0
trace: 0
valid: 0
********
sampler set details
set index: 396
partial tag: 0000000000000000
lru: 0000
reuse bit: 0
trace: 0
valid: 0
********
sampler set details
set index: 1585
partial tag: 0000000000000000
lru: 0000
reuse bit: 0
trace: 0
valid: 0
********
sampler set details
set index: 330
partial tag: 0000000000000000
lru: 0000
reuse bit: 0
trace: 0
valid: 0
********
sampler set details
set index: 1519
partial tag: 0000000000000000
lru: 0000
reuse bit: 0
trace: 0
valid: 0
********
sampler set details
set index: 264
partial tag: 0000000000000000
lru: 0000
reuse bit: 0
trace: 0
valid: 0
********
sampler set details
set index: 1453
partial tag: 0000000000000000
lru: 0000
reuse bit: 0
trace: 0
valid: 0
********
sampler set details
set index: 198
partial tag: 0000000000000000
lru: 0000
reuse bit: 0
trace: 0
valid: 0
********
sampler set details
set index: 1387
partial tag: 0000000000000000
lru: 0000
reuse bit: 0
trace: 0
valid: 0
********
sampler set details
set index: 132
partial tag: 0000000000000000
lru: 0000
reuse bit: 0
trace: 0
valid: 0
********
sampler set details
set index: 1321
partial tag: 0000000000000000
lru: 0000
reuse bit: 0
trace: 0
valid: 0
********
sampler set details
set index: 66
partial tag: 0000000000000000
lru: 0000
reuse bit: 0
trace: 0
valid: 0
********
sampler set details
set index: 1255
partial tag: 0000000000000000
lru: 0000
reuse bit: 0
trace: 0
valid: 0
********
sampler set details
set index: 0
partial tag: 0000000000000000
lru: 0000
reuse bit: 0
trace: 0
valid: 0
********
sampler set details
set index: 1189
partial tag: 0000000111010011
lru: 0000
reuse bit: 1
trace: 904
valid: 1
********
sampler set details
set index: 858
partial tag: 0000000111010011
lru: 0000
reuse bit: 1
trace: 856
valid: 1
********
sampler set details
set index: 924
partial tag: 0000000000000000
lru: 0000
reuse bit: 0
trace: 0
valid: 0
********
sampler set details
set index: 990
partial tag: 0000000000000000
lru: 0000
reuse bit: 0
trace: 0
valid: 0
********
sampler set details
set index: 1057
partial tag: 0000000000000000
lru: 0000
reuse bit: 0
trace: 0
valid: 0
********
sampler set details
set index: 1123
partial tag: 0000000000000000
lru: 0000
reuse bit: 0
trace: 0
valid: 0
********
sampler set details
set index: 2047
partial tag: 0000000000000000
lru: 0000
reuse bit: 0
trace: 0
valid: 0
********
sampler set details
set index: 1981
partial tag: 0000000111010100
lru: 0000
reuse bit: 1
trace: 1976
valid: 1
********
sampler set details
set index: 1915
partial tag: 0000000000000000
lru: 0000
reuse bit: 0
trace: 0
valid: 0
********
sampler set details
set index: 792
partial tag: 0000000111010011
lru: 0000
reuse bit: 1
trace: 768
valid: 1
********
sampler set details
set index: 726
partial tag: 0000000000000000
lru: 0000
reuse bit: 0
trace: 0
valid: 0
********
sampler set details
set index: 660
partial tag: 0000000000000000
lru: 0000
reuse bit: 0
trace: 0
valid: 0
********
sampler set details
set index: 1849
partial tag: 0000000000000000
lru: 0000
reuse bit: 0
trace: 0
valid: 0
********
sampler set details
set index: 594
partial tag: 0000000000000000
lru: 0000
reuse bit: 0
trace: 0
valid: 0
********
sampler set details
set index: 1783
partial tag: 0000000000000000
lru: 0000
reuse bit: 0
trace: 0
valid: 0
********
sampler set details
set index: 528
partial tag: 0000000000000000
lru: 0000
reuse bit: 0
trace: 0
valid: 0
********
sampler set details
set index: 1717
partial tag: 0000000000000000
lru: 0000
reuse bit: 0
trace: 0
valid: 0
********
sampler set details
set index: 462
partial tag: 0000000111010011
lru: 0000
reuse bit: 1
trace: 739
valid: 1
********
sampler set details
set index: 1651
partial tag: 0000000000000000
lru: 0000
reuse bit: 0
trace: 0
valid: 0
********
sampler set details
set index: 396
partial tag: 0000000000000000
lru: 0000
reuse bit: 0
trace: 0
valid: 0
********
sampler set details
set index: 1585
partial tag: 0000000000000000
lru: 0000
reuse bit: 0
trace: 0
valid: 0
********
sampler set details
set index: 330
partial tag: 0000000000000000
lru: 0000
reuse bit: 0
trace: 0
valid: 0
********
sampler set details
set index: 1519
partial tag: 0000000000000000
lru: 0000
reuse bit: 0
trace: 0
valid: 0
********
sampler set details
set index: 264
partial tag: 0000000000000000
lru: 0000
reuse bit: 0
trace: 0
valid: 0
********
sampler set details
set index: 1453
partial tag: 0000000000000000
lru: 0000
reuse bit: 0
trace: 0
valid: 0
********
sampler set details
set index: 198
partial tag: 0000000000000000
lru: 0000
reuse bit: 0
trace: 0
valid: 0
********
sampler set details
set index: 1387
partial tag: 0000000000000000
lru: 0000
reuse bit: 0
trace: 0
valid: 0
********
sampler set details
set index: 132
partial tag: 0000000000000000
lru: 0000
reuse bit: 0
trace: 0
valid: 0
********
sampler set details
set index: 1321
partial tag: 0000000000000000
lru: 0000
reuse bit: 0
trace: 0
valid: 0
********
sampler set details
set index: 66
partial tag: 0000000000000000
lru: 0000
reuse bit: 0
trace: 0
valid: 0
********
sampler set details
set index: 1255
partial tag: 0000000000000000
lru: 0000
reuse bit: 0
trace: 0
valid: 0
********
sampler set details
set index: 0
partial tag: 0000000000000000
lru: 0000
reuse bit: 0
trace: 0
valid: 0
********
sampler set details
set index: 1189
partial tag: 0000000111010011
lru: 0000
reuse bit: 1
trace: 904
valid: 1
********
sampler set details
set index: 858
partial tag: 0000000111010011
lru: 0000
reuse bit: 1
trace: 856
valid: 1
********
sampler set details
set index: 924
partial tag: 0000000000000000
lru: 0000
reuse bit: 0
trace: 0
valid: 0
********
sampler set details
set index: 990
partial tag: 0000000000000000
lru: 0000
reuse bit: 0
trace: 0
valid: 0
********
sampler set details
set index: 1057
partial tag: 0000000000000000
lru: 0000
reuse bit: 0
trace: 0
valid: 0
********
sampler set details
set index: 1123
partial tag: 0000000000000000
lru: 0000
reuse bit: 0
trace: 0
valid: 0
********
sampler set details
set index: 2047
partial tag: 0000000000000000
lru: 0000
reuse bit: 0
trace: 0
valid: 0
********
sampler set details
set index: 1981
partial tag: 0000000111010100
lru: 0000
reuse bit: 1
trace: 1976
valid: 1
********
sampler set details
set index: 1915
partial tag: 0000000000000000
lru: 0000
reuse bit: 0
trace: 0
valid: 0
********
sampler set details
set index: 792
partial tag: 0000000111010011
lru: 0000
reuse bit: 1
trace: 768
valid: 1
********
sampler set details
set index: 726
partial tag: 0000000111010011
lru: 0000
reuse bit: 1
trace: 949
valid: 1
********
sampler set details
set index: 660
partial tag: 0000000000000000
lru: 0000
reuse bit: 0
trace: 0
valid: 0
********
sampler set details
set index: 1849
partial tag: 0000000000000000
lru: 0000
reuse bit: 0
trace: 0
valid: 0
********
sampler set details
set index: 594
partial tag: 0000000000000000
lru: 0000
reuse bit: 0
trace: 0
valid: 0
********
sampler set details
set index: 1783
partial tag: 0000000000000000
lru: 0000
reuse bit: 0
trace: 0
valid: 0
********
sampler set details
set index: 528
partial tag: 0000000000000000
lru: 0000
reuse bit: 0
trace: 0
valid: 0
********
sampler set details
set index: 1717
partial tag: 0000000000000000
lru: 0000
reuse bit: 0
trace: 0
valid: 0
********
sampler set details
set index: 462
partial tag: 0000000111010011
lru: 0000
reuse bit: 1
trace: 739
valid: 1
********
sampler set details
set index: 1651
partial tag: 0000000000000000
lru: 0000
reuse bit: 0
trace: 0
valid: 0
********
sampler set details
set index: 396
partial tag: 0000000000000000
lru: 0000
reuse bit: 0
trace: 0
valid: 0
********
sampler set details
set index: 1585
partial tag: 0000000000000000
lru: 0000
reuse bit: 0
trace: 0
valid: 0
********
sampler set details
set index: 330
partial tag: 0000000000000000
lru: 0000
reuse bit: 0
trace: 0
valid: 0
********
sampler set details
set index: 1519
partial tag: 0000000000000000
lru: 0000
reuse bit: 0
trace: 0
valid: 0
********
sampler set details
set index: 264
partial tag: 0000000000000000
lru: 0000
reuse bit: 0
trace: 0
valid: 0
********
sampler set details
set index: 1453
partial tag: 0000000000000000
lru: 0000
reuse bit: 0
trace: 0
valid: 0
********
sampler set details
set index: 198
partial tag: 0000000000000000
lru: 0000
reuse bit: 0
trace: 0
valid: 0
********
sampler set details
set index: 1387
partial tag: 0000000000000000
lru: 0000
reuse bit: 0
trace: 0
valid: 0
********
sampler set details
set index: 132
partial tag: 0000000000000000
lru: 0000
reuse bit: 0
trace: 0
valid: 0
********
sampler set details
set index: 1321
partial tag: 0000000000000000
lru: 0000
reuse bit: 0
trace: 0
valid: 0
********
sampler set details
set index: 66
partial tag: 0000000000000000
lru: 0000
reuse bit: 0
trace: 0
valid: 0
********
sampler set details
set index: 1255
partial tag: 0000000000000000
lru: 0000
reuse bit: 0
trace: 0
valid: 0
********
sampler set details
set index: 0
partial tag: 0000000000000000
lru: 0000
reuse bit: 0
trace: 0
valid: 0
********
sampler set details
set index: 1189
partial tag: 0000000111010011
lru: 0000
reuse bit: 1
trace: 904
valid: 1
********
sampler set details
set index: 858
partial tag: 0000000111010011
lru: 0000
reuse bit: 1
trace: 856
valid: 1
********
sampler set details
set index: 924
partial tag: 0000000000000000
lru: 0000
reuse bit: 0
trace: 0
valid: 0
********
sampler set details
set index: 990
partial tag: 0000000000000000
lru: 0000
reuse bit: 0
trace: 0
valid: 0
********
sampler set details
set index: 1057
partial tag: 0000000000000000
lru: 0000
reuse bit: 0
trace: 0
valid: 0
********
sampler set details
set index: 1123
partial tag: 0000000000000000
lru: 0000
reuse bit: 0
trace: 0
valid: 0
********
sampler set details
set index: 2047
partial tag: 0000000000000000
lru: 0000
reuse bit: 0
trace: 0
valid: 0
********
sampler set details
set index: 1981
partial tag: 0000000111010100
lru: 0000
reuse bit: 1
trace: 1976
valid: 1
********
sampler set details
set index: 1915
partial tag: 0000000000000000
lru: 0000
reuse bit: 0
trace: 0
valid: 0
********
sampler set details
set index: 792
partial tag: 0000000111010011
lru: 0000
reuse bit: 1
trace: 768
valid: 1
********
sampler set details
set index: 726
partial tag: 0000000111010011
lru: 0000
reuse bit: 1
trace: 949
valid: 1
********
sampler set details
set index: 660
partial tag: 0000000000000000
lru: 0000
reuse bit: 0
trace: 0
valid: 0
********
sampler set details
set index: 1849
partial tag: 0000000000000000
lru: 0000
reuse bit: 0
trace: 0
valid: 0
********
sampler set details
set index: 594
partial tag: 0000000000000000
lru: 0000
reuse bit: 0
trace: 0
valid: 0
********
sampler set details
set index: 1783
partial tag: 0000000000000000
lru: 0000
reuse bit: 0
trace: 0
valid: 0
********
sampler set details
set index: 528
partial tag: 0000000000000000
lru: 0000
reuse bit: 0
trace: 0
valid: 0
********
sampler set details
set index: 1717
partial tag: 0000000000000000
lru: 0000
reuse bit: 0
trace: 0
valid: 0
********
sampler set details
set index: 462
partial tag: 0000000111010011
lru: 0000
reuse bit: 1
trace: 739
valid: 1
********
sampler set details
set index: 1651
partial tag: 0000000000000000
lru: 0000
reuse bit: 0
trace: 0
valid: 0
********
sampler set details
set index: 396
partial tag: 0000000000000000
lru: 0000
reuse bit: 0
trace: 0
valid: 0
********
sampler set details
set index: 1585
partial tag: 0000000000000000
lru: 0000
reuse bit: 0
trace: 0
valid: 0
********
sampler set details
set index: 330
partial tag: 0000000000000000
lru: 0000
reuse bit: 0
trace: 0
valid: 0
********
sampler set details
set index: 1519
partial tag: 0000000000000000
lru: 0000
reuse bit: 0
trace: 0
valid: 0
********
sampler set details
set index: 264
partial tag: 0000000000000000
lru: 0000
reuse bit: 0
trace: 0
valid: 0
********
sampler set details
set index: 1453
partial tag: 0000000000000000
lru: 0000
reuse bit: 0
trace: 0
valid: 0
********
sampler set details
set index: 198
partial tag: 0000000000000000
lru: 0000
reuse bit: 0
trace: 0
valid: 0
********
sampler set details
set index: 1387
partial tag: 0000000000000000
lru: 0000
reuse bit: 0
trace: 0
valid: 0
********
sampler set details
set index: 132
partial tag: 0000000000000000
lru: 0000
reuse bit: 0
trace: 0
valid: 0
********
sampler set details
set index: 1321
partial tag: 0000000000000000
lru: 0000
reuse bit: 0
trace: 0
valid: 0
********
sampler set details
set index: 66
partial tag: 0000000000000000
lru: 0000
reuse bit: 0
trace: 0
valid: 0
********
sampler set details
set index: 1255
partial tag: 0000000000000000
lru: 0000
reuse bit: 0
trace: 0
valid: 0
********
sampler set details
set index: 0
partial tag: 0000000000000000
lru: 0000
reuse bit: 0
trace: 0
valid: 0
********
sampler set details
set index: 1189
partial tag: 0000000111010011
lru: 0000
reuse bit: 1
trace: 1184
valid: 1
********
sampler set details
set index: 858
partial tag: 0000000111010011
lru: 0000
reuse bit: 1
trace: 856
valid: 1
********
sampler set details
set index: 924
partial tag: 0000000000000000
lru: 0000
reuse bit: 0
trace: 0
valid: 0
********
sampler set details
set index: 990
partial tag: 0000000000000000
lru: 0000
reuse bit: 0
trace: 0
valid: 0
********
sampler set details
set index: 1057
partial tag: 0000000000000000
lru: 0000
reuse bit: 0
trace: 0
valid: 0
********
sampler set details
set index: 1123
partial tag: 0000000000000000
lru: 0000
reuse bit: 0
trace: 0
valid: 0
********
sampler set details
set index: 2047
partial tag: 0000000000000000
lru: 0000
reuse bit: 0
trace: 0
valid: 0
********
sampler set details
set index: 1981
partial tag: 0000000111010100
lru: 0000
reuse bit: 1
trace: 1976
valid: 1
********
sampler set details
set index: 1915
partial tag: 0000000000000000
lru: 0000
reuse bit: 0
trace: 0
valid: 0
********
sampler set details
set index: 792
partial tag: 0000000111010011
lru: 0000
reuse bit: 1
trace: 768
valid: 1
********
sampler set details
set index: 726
partial tag: 0000000111010011
lru: 0000
reuse bit: 1
trace: 949
valid: 1
********
sampler set details
set index: 660
partial tag: 0000000000000000
lru: 0000
reuse bit: 0
trace: 0
valid: 0
********
sampler set details
set index: 1849
partial tag: 0000000000000000
lru: 0000
reuse bit: 0
trace: 0
valid: 0
********
sampler set details
set index: 594
partial tag: 0000000000000000
lru: 0000
reuse bit: 0
trace: 0
valid: 0
********
sampler set details
set index: 1783
partial tag: 0000000000000000
lru: 0000
reuse bit: 0
trace: 0
valid: 0
********
sampler set details
set index: 528
partial tag: 0000000000000000
lru: 0000
reuse bit: 0
trace: 0
valid: 0
********
sampler set details
set index: 1717
partial tag: 0000000000000000
lru: 0000
reuse bit: 0
trace: 0
valid: 0
********
sampler set details
set index: 462
partial tag: 0000000111010011
lru: 0000
reuse bit: 1
trace: 739
valid: 1
********
sampler set details
set index: 1651
partial tag: 0000000000000000
lru: 0000
reuse bit: 0
trace: 0
valid: 0
********
sampler set details
set index: 396
partial tag: 0000000000000000
lru: 0000
reuse bit: 0
trace: 0
valid: 0
********
sampler set details
set index: 1585
partial tag: 0000000000000000
lru: 0000
reuse bit: 0
trace: 0
valid: 0
********
sampler set details
set index: 330
partial tag: 0000000000000000
lru: 0000
reuse bit: 0
trace: 0
valid: 0
********
sampler set details
set index: 1519
partial tag: 0000000000000000
lru: 0000
reuse bit: 0
trace: 0
valid: 0
********
sampler set details
set index: 264
partial tag: 0000000000000000
lru: 0000
reuse bit: 0
trace: 0
valid: 0
********
sampler set details
set index: 1453
partial tag: 0000000000000000
lru: 0000
reuse bit: 0
trace: 0
valid: 0
********
sampler set details
set index: 198
partial tag: 0000000111010100
lru: 0000
reuse bit: 1
trace: 1803
valid: 1
********
sampler set details
set index: 1387
partial tag: 0000000000000000
lru: 0000
reuse bit: 0
trace: 0
valid: 0
********
sampler set details
set index: 132
partial tag: 0000000000000000
lru: 0000
reuse bit: 0
trace: 0
valid: 0
********
sampler set details
set index: 1321
partial tag: 0000000000000000
lru: 0000
reuse bit: 0
trace: 0
valid: 0
********
sampler set details
set index: 66
partial tag: 0000000000000000
lru: 0000
reuse bit: 0
trace: 0
valid: 0
********
sampler set details
set index: 1255
partial tag: 0000000000000000
lru: 0000
reuse bit: 0
trace: 0
valid: 0
********
sampler set details
set index: 0
partial tag: 0000000000000000
lru: 0000
reuse bit: 0
trace: 0
valid: 0
********
sampler set details
set index: 1189
partial tag: 0000000111010011
lru: 0000
reuse bit: 1
trace: 1184
valid: 1
********
sampler set details
set index: 858
partial tag: 0000000111010011
lru: 0000
reuse bit: 1
trace: 856
valid: 1
********
sampler set details
set index: 924
partial tag: 0000000000000000
lru: 0000
reuse bit: 0
trace: 0
valid: 0
********
sampler set details
set index: 990
partial tag: 0000000000000000
lru: 0000
reuse bit: 0
trace: 0
valid: 0
********
sampler set details
set index: 1057
partial tag: 0000000000000000
lru: 0000
reuse bit: 0
trace: 0
valid: 0
********
sampler set details
set index: 1123
partial tag: 0000000000000000
lru: 0000
reuse bit: 0
trace: 0
valid: 0
********
sampler set details
set index: 2047
partial tag: 0000000000000000
lru: 0000
reuse bit: 0
trace: 0
valid: 0
********
sampler set details
set index: 1981
partial tag: 0000000111010100
lru: 0000
reuse bit: 1
trace: 1976
valid: 1
********
sampler set details
set index: 1915
partial tag: 0000000000000000
lru: 0000
reuse bit: 0
trace: 0
valid: 0
********
sampler set details
set index: 792
partial tag: 0000000111010011
lru: 0000
reuse bit: 1
trace: 768
valid: 1
********
sampler set details
set index: 726
partial tag: 0000000111010011
lru: 0000
reuse bit: 1
trace: 949
valid: 1
********
sampler set details
set index: 660
partial tag: 0000000000000000
lru: 0000
reuse bit: 0
trace: 0
valid: 0
********
sampler set details
set index: 1849
partial tag: 0000000000000000
lru: 0000
reuse bit: 0
trace: 0
valid: 0
********
sampler set details
set index: 594
partial tag: 0000000000000000
lru: 0000
reuse bit: 0
trace: 0
valid: 0
********
sampler set details
set index: 1783
partial tag: 0000000000000000
lru: 0000
reuse bit: 0
trace: 0
valid: 0
********
sampler set details
set index: 528
partial tag: 0000000000000000
lru: 0000
reuse bit: 0
trace: 0
valid: 0
********
sampler set details
set index: 1717
partial tag: 0000000000000000
lru: 0000
reuse bit: 0
trace: 0
valid: 0
********
sampler set details
set index: 462
partial tag: 0000000111010011
lru: 0000
reuse bit: 1
trace: 739
valid: 1
********
sampler set details
set index: 1651
partial tag: 0000000000000000
lru: 0000
reuse bit: 0
trace: 0
valid: 0
********
sampler set details
set index: 396
partial tag: 0000000000000000
lru: 0000
reuse bit: 0
trace: 0
valid: 0
********
sampler set details
set index: 1585
partial tag: 0000000000000000
lru: 0000
reuse bit: 0
trace: 0
valid: 0
********
sampler set details
set index: 330
partial tag: 0000000000000000
lru: 0000
reuse bit: 0
trace: 0
valid: 0
********
sampler set details
set index: 1519
partial tag: 0000000000000000
lru: 0000
reuse bit: 0
trace: 0
valid: 0
********
sampler set details
set index: 264
partial tag: 0000000111010100
lru: 0000
reuse bit: 1
trace: 1797
valid: 1
********
sampler set details
set index: 1453
partial tag: 0000000000000000
lru: 0000
reuse bit: 0
trace: 0
valid: 0
********
sampler set details
set index: 198
partial tag: 0000000111010100
lru: 0000
reuse bit: 1
trace: 1803
valid: 1
********
sampler set details
set index: 1387
partial tag: 0000000000000000
lru: 0000
reuse bit: 0
trace: 0
valid: 0
********
sampler set details
set index: 132
partial tag: 0000000000000000
lru: 0000
reuse bit: 0
trace: 0
valid: 0
********
sampler set details
set index: 1321
partial tag: 0000000000000000
lru: 0000
reuse bit: 0
trace: 0
valid: 0
********
sampler set details
set index: 66
partial tag: 0000000000000000
lru: 0000
reuse bit: 0
trace: 0
valid: 0
********
sampler set details
set index: 1255
partial tag: 0000000000000000
lru: 0000
reuse bit: 0
trace: 0
valid: 0
********
sampler set details
set index: 0
partial tag: 0000000000000000
lru: 0000
reuse bit: 0
trace: 0
valid: 0
********
sampler set details
set index: 1189
partial tag: 0000000111010011
lru: 0000
reuse bit: 1
trace: 1184
valid: 1
********
sampler set details
set index: 858
partial tag: 0000000111010011
lru: 0000
reuse bit: 1
trace: 856
valid: 1
********
sampler set details
set index: 924
partial tag: 0000000000000000
lru: 0000
reuse bit: 0
trace: 0
valid: 0
********
sampler set details
set index: 990
partial tag: 0000000000000000
lru: 0000
reuse bit: 0
trace: 0
valid: 0
********
sampler set details
set index: 1057
partial tag: 0000000000000000
lru: 0000
reuse bit: 0
trace: 0
valid: 0
********
sampler set details
set index: 1123
partial tag: 0000000000000000
lru: 0000
reuse bit: 0
trace: 0
valid: 0
********
sampler set details
set index: 2047
partial tag: 0000000000000000
lru: 0000
reuse bit: 0
trace: 0
valid: 0
********
sampler set details
set index: 1981
partial tag: 0000000111010100
lru: 0000
reuse bit: 1
trace: 1976
valid: 1
********
sampler set details
set index: 1915
partial tag: 0000000000000000
lru: 0000
reuse bit: 0
trace: 0
valid: 0
********
sampler set details
set index: 792
partial tag: 0000000111010011
lru: 0000
reuse bit: 1
trace: 768
valid: 1
********
sampler set details
set index: 726
partial tag: 0000000111010011
lru: 0000
reuse bit: 1
trace: 949
valid: 1
********
sampler set details
set index: 660
partial tag: 0000000000000000
lru: 0000
reuse bit: 0
trace: 0
valid: 0
********
sampler set details
set index: 1849
partial tag: 0000000000000000
lru: 0000
reuse bit: 0
trace: 0
valid: 0
********
sampler set details
set index: 594
partial tag: 0000000000000000
lru: 0000
reuse bit: 0
trace: 0
valid: 0
********
sampler set details
set index: 1783
partial tag: 0000000000000000
lru: 0000
reuse bit: 0
trace: 0
valid: 0
********
sampler set details
set index: 528
partial tag: 0000000000000000
lru: 0000
reuse bit: 0
trace: 0
valid: 0
********
sampler set details
set index: 1717
partial tag: 0000000000000000
lru: 0000
reuse bit: 0
trace: 0
valid: 0
********
sampler set details
set index: 462
partial tag: 0000000111010011
lru: 0000
reuse bit: 1
trace: 739
valid: 1
********
sampler set details
set index: 1651
partial tag: 0000000000000000
lru: 0000
reuse bit: 0
trace: 0
valid: 0
********
sampler set details
set index: 396
partial tag: 0000000000000000
lru: 0000
reuse bit: 0
trace: 0
valid: 0
********
sampler set details
set index: 1585
partial tag: 0000000000000000
lru: 0000
reuse bit: 0
trace: 0
valid: 0
********
sampler set details
set index: 330
partial tag: 0000000111010100
lru: 0000
reuse bit: 1
trace: 1170
valid: 1
********
sampler set details
set index: 1519
partial tag: 0000000000000000
lru: 0000
reuse bit: 0
trace: 0
valid: 0
********
sampler set details
set index: 264
partial tag: 0000000111010100
lru: 0000
reuse bit: 1
trace: 1797
valid: 1
********
sampler set details
set index: 1453
partial tag: 0000000000000000
lru: 0000
reuse bit: 0
trace: 0
valid: 0
********
sampler set details
set index: 198
partial tag: 0000000111010100
lru: 0000
reuse bit: 1
trace: 1803
valid: 1
********
sampler set details
set index: 1387
partial tag: 0000000000000000
lru: 0000
reuse bit: 0
trace: 0
valid: 0
********
sampler set details
set index: 132
partial tag: 0000000000000000
lru: 0000
reuse bit: 0
trace: 0
valid: 0
********
sampler set details
set index: 1321
partial tag: 0000000000000000
lru: 0000
reuse bit: 0
trace: 0
valid: 0
********
sampler set details
set index: 66
partial tag: 0000000000000000
lru: 0000
reuse bit: 0
trace: 0
valid: 0
********
sampler set details
set index: 1255
partial tag: 0000000000000000
lru: 0000
reuse bit: 0
trace: 0
valid: 0
********
sampler set details
set index: 0
partial tag: 0000000000000000
lru: 0000
reuse bit: 0
trace: 0
valid: 0
********
sampler set details
set index: 1189
partial tag: 0000000111010011
lru: 0000
reuse bit: 1
trace: 1184
valid: 1
********
sampler set details
set index: 858
partial tag: 0000000111010011
lru: 0000
reuse bit: 1
trace: 856
valid: 1
********
sampler set details
set index: 924
partial tag: 0000000000000000
lru: 0000
reuse bit: 0
trace: 0
valid: 0
********
sampler set details
set index: 990
partial tag: 0000000000000000
lru: 0000
reuse bit: 0
trace: 0
valid: 0
********
sampler set details
set index: 1057
partial tag: 0000000000000000
lru: 0000
reuse bit: 0
trace: 0
valid: 0
********
sampler set details
set index: 1123
partial tag: 0000000000000000
lru: 0000
reuse bit: 0
trace: 0
valid: 0
********
sampler set details
set index: 2047
partial tag: 0000000000000000
lru: 0000
reuse bit: 0
trace: 0
valid: 0
********
sampler set details
set index: 1981
partial tag: 0000000111010100
lru: 0000
reuse bit: 1
trace: 1976
valid: 1
********
sampler set details
set index: 1915
partial tag: 0000000000000000
lru: 0000
reuse bit: 0
trace: 0
valid: 0
********
sampler set details
set index: 792
partial tag: 0000000111010011
lru: 0000
reuse bit: 1
trace: 768
valid: 1
********
sampler set details
set index: 726
partial tag: 0000000111010011
lru: 0000
reuse bit: 1
trace: 949
valid: 1
********
sampler set details
set index: 660
partial tag: 0000000000000000
lru: 0000
reuse bit: 0
trace: 0
valid: 0
********
sampler set details
set index: 1849
partial tag: 0000000000000000
lru: 0000
reuse bit: 0
trace: 0
valid: 0
********
sampler set details
set index: 594
partial tag: 0000000000000000
lru: 0000
reuse bit: 0
trace: 0
valid: 0
********
sampler set details
set index: 1783
partial tag: 0000000000000000
lru: 0000
reuse bit: 0
trace: 0
valid: 0
********
sampler set details
set index: 528
partial tag: 0000000000000000
lru: 0000
reuse bit: 0
trace: 0
valid: 0
********
sampler set details
set index: 1717
partial tag: 0000000000000000
lru: 0000
reuse bit: 0
trace: 0
valid: 0
********
sampler set details
set index: 462
partial tag: 0000000111010011
lru: 0000
reuse bit: 1
trace: 739
valid: 1
********
sampler set details
set index: 1651
partial tag: 0000000000000000
lru: 0000
reuse bit: 0
trace: 0
valid: 0
********
sampler set details
set index: 396
partial tag: 0000000000000000
lru: 0000
reuse bit: 0
trace: 0
valid: 0
********
sampler set details
set index: 1585
partial tag: 0000000000000000
lru: 0000
reuse bit: 0
trace: 0
valid: 0
********
sampler set details
set index: 330
partial tag: 0000000111010100
lru: 0000
reuse bit: 1
trace: 1170
valid: 1
********
sampler set details
set index: 1519
partial tag: 0000000000000000
lru: 0000
reuse bit: 0
trace: 0
valid: 0
********
sampler set details
set index: 264
partial tag: 0000000111010100
lru: 0000
reuse bit: 1
trace: 1797
valid: 1
********
sampler set details
set index: 1453
partial tag: 0000000000000000
lru: 0000
reuse bit: 0
trace: 0
valid: 0
********
sampler set details
set index: 198
partial tag: 0000000111010100
lru: 0000
reuse bit: 1
trace: 1803
valid: 1
********
sampler set details
set index: 1387
partial tag: 0000000000000000
lru: 0000
reuse bit: 0
trace: 0
valid: 0
********
sampler set details
set index: 132
partial tag: 0000000000000000
lru: 0000
reuse bit: 0
trace: 0
valid: 0
********
sampler set details
set index: 1321
partial tag: 0000000000000000
lru: 0000
reuse bit: 0
trace: 0
valid: 0
********
sampler set details
set index: 66
partial tag: 0000000000000000
lru: 0000
reuse bit: 0
trace: 0
valid: 0
********
sampler set details
set index: 1255
partial tag: 0000000000000000
lru: 0000
reuse bit: 0
trace: 0
valid: 0
********
sampler set details
set index: 0
partial tag: 0000000000000000
lru: 0000
reuse bit: 0
trace: 0
valid: 0
********
sampler set details
set index: 1189
partial tag: 0000000111010011
lru: 0000
reuse bit: 1
trace: 1184
valid: 1
********
sampler set details
set index: 858
partial tag: 0000000111010011
lru: 0000
reuse bit: 1
trace: 856
valid: 1
********
sampler set details
set index: 924
partial tag: 0000000111010100
lru: 0000
reuse bit: 1
trace: 1949
valid: 1
********
sampler set details
set index: 990
partial tag: 0000000000000000
lru: 0000
reuse bit: 0
trace: 0
valid: 0
********
sampler set details
set index: 1057
partial tag: 0000000000000000
lru: 0000
reuse bit: 0
trace: 0
valid: 0
********
sampler set details
set index: 1123
partial tag: 0000000000000000
lru: 0000
reuse bit: 0
trace: 0
valid: 0
********
sampler set details
set index: 2047
partial tag: 0000000000000000
lru: 0000
reuse bit: 0
trace: 0
valid: 0
********
sampler set details
set index: 1981
partial tag: 0000000111010100
lru: 0000
reuse bit: 1
trace: 1976
valid: 1
********
sampler set details
set index: 1915
partial tag: 0000000111010100
lru: 0000
reuse bit: 1
trace: 1797
valid: 1
********
sampler set details
set index: 792
partial tag: 0000000111010011
lru: 0000
reuse bit: 1
trace: 768
valid: 1
********
sampler set details
set index: 726
partial tag: 0000000111010011
lru: 0000
reuse bit: 1
trace: 949
valid: 1
********
sampler set details
set index: 660
partial tag: 0000000000000000
lru: 0000
reuse bit: 0
trace: 0
valid: 0
********
sampler set details
set index: 1849
partial tag: 0000000000000000
lru: 0000
reuse bit: 0
trace: 0
valid: 0
********
sampler set details
set index: 594
partial tag: 0000000000000000
lru: 0000
reuse bit: 0
trace: 0
valid: 0
********
sampler set details
set index: 1783
partial tag: 0000000000000000
lru: 0000
reuse bit: 0
trace: 0
valid: 0
********
sampler set details
set index: 528
partial tag: 0000000000000000
lru: 0000
reuse bit: 0
trace: 0
valid: 0
********
sampler set details
set index: 1717
partial tag: 0000000000000000
lru: 0000
reuse bit: 0
trace: 0
valid: 0
********
sampler set details
set index: 462
partial tag: 0000000111010011
lru: 0000
reuse bit: 1
trace: 739
valid: 1
********
sampler set details
set index: 1651
partial tag: 0000000000000000
lru: 0000
reuse bit: 0
trace: 0
valid: 0
********
sampler set details
set index: 396
partial tag: 0000000000000000
lru: 0000
reuse bit: 0
trace: 0
valid: 0
********
sampler set details
set index: 1585
partial tag: 0000000000000000
lru: 0000
reuse bit: 0
trace: 0
valid: 0
********
sampler set details
set index: 330
partial tag: 0000000111010100
lru: 0000
reuse bit: 1
trace: 1170
valid: 1
********
sampler set details
set index: 1519
partial tag: 0000000000000000
lru: 0000
reuse bit: 0
trace: 0
valid: 0
********
sampler set details
set index: 264
partial tag: 0000000111010100
lru: 0000
reuse bit: 1
trace: 1797
valid: 1
********
sampler set details
set index: 1453
partial tag: 0000000000000000
lru: 0000
reuse bit: 0
trace: 0
valid: 0
********
sampler set details
set index: 198
partial tag: 0000000111010100
lru: 0000
reuse bit: 1
trace: 1803
valid: 1
********
sampler set details
set index: 1387
partial tag: 0000000000000000
lru: 0000
reuse bit: 0
trace: 0
valid: 0
********
sampler set details
set index: 132
partial tag: 0000000000000000
lru: 0000
reuse bit: 0
trace: 0
valid: 0
********
sampler set details
set index: 1321
partial tag: 0000000000000000
lru: 0000
reuse bit: 0
trace: 0
valid: 0
********
sampler set details
set index: 66
partial tag: 0000000000000000
lru: 0000
reuse bit: 0
trace: 0
valid: 0
********
sampler set details
set index: 1255
partial tag: 0000000000000000
lru: 0000
reuse bit: 0
trace: 0
valid: 0
********
sampler set details
set index: 0
partial tag: 0000000000000000
lru: 0000
reuse bit: 0
trace: 0
valid: 0
********
sampler set details
set index: 1189
partial tag: 0000000111010011
lru: 0000
reuse bit: 1
trace: 1184
valid: 1
********
sampler set details
set index: 858
partial tag: 0000000111010011
lru: 0000
reuse bit: 1
trace: 856
valid: 1
********
sampler set details
set index: 924
partial tag: 0000000111010100
lru: 0000
reuse bit: 1
trace: 1949
valid: 1
********
sampler set details
set index: 990
partial tag: 0000000000000000
lru: 0000
reuse bit: 0
trace: 0
valid: 0
********
sampler set details
set index: 1057
partial tag: 0000000000000000
lru: 0000
reuse bit: 0
trace: 0
valid: 0
********
sampler set details
set index: 1123
partial tag: 0000000000000000
lru: 0000
reuse bit: 0
trace: 0
valid: 0
********
sampler set details
set index: 2047
partial tag: 0000000000000000
lru: 0000
reuse bit: 0
trace: 0
valid: 0
********
sampler set details
set index: 1981
partial tag: 0000000111010100
lru: 0000
reuse bit: 1
trace: 1976
valid: 1
********
sampler set details
set index: 1915
partial tag: 0000000111010100
lru: 0000
reuse bit: 1
trace: 1797
valid: 1
********
sampler set details
set index: 792
partial tag: 0000000111010011
lru: 0000
reuse bit: 1
trace: 768
valid: 1
********
sampler set details
set index: 726
partial tag: 0000000111010011
lru: 0000
reuse bit: 1
trace: 949
valid: 1
********
sampler set details
set index: 660
partial tag: 0000000111010100
lru: 0000
reuse bit: 1
trace: 1297
valid: 1
********
sampler set details
set index: 1849
partial tag: 0000000000000000
lru: 0000
reuse bit: 0
trace: 0
valid: 0
********
sampler set details
set index: 594
partial tag: 0000000000000000
lru: 0000
reuse bit: 0
trace: 0
valid: 0
********
sampler set details
set index: 1783
partial tag: 0000000000000000
lru: 0000
reuse bit: 0
trace: 0
valid: 0
********
sampler set details
set index: 528
partial tag: 0000000000000000
lru: 0000
reuse bit: 0
trace: 0
valid: 0
********
sampler set details
set index: 1717
partial tag: 0000000000000000
lru: 0000
reuse bit: 0
trace: 0
valid: 0
********
sampler set details
set index: 462
partial tag: 0000000111010011
lru: 0000
reuse bit: 1
trace: 739
valid: 1
********
sampler set details
set index: 1651
partial tag: 0000000000000000
lru: 0000
reuse bit: 0
trace: 0
valid: 0
********
sampler set details
set index: 396
partial tag: 0000000000000000
lru: 0000
reuse bit: 0
trace: 0
valid: 0
********
sampler set details
set index: 1585
partial tag: 0000000000000000
lru: 0000
reuse bit: 0
trace: 0
valid: 0
********
sampler set details
set index: 330
partial tag: 0000000111010100
lru: 0000
reuse bit: 1
trace: 1170
valid: 1
********
sampler set details
set index: 1519
partial tag: 0000000000000000
lru: 0000
reuse bit: 0
trace: 0
valid: 0
********
sampler set details
set index: 264
partial tag: 0000000111010100
lru: 0000
reuse bit: 1
trace: 1797
valid: 1
********
sampler set details
set index: 1453
partial tag: 0000000000000000
lru: 0000
reuse bit: 0
trace: 0
valid: 0
********
sampler set details
set index: 198
partial tag: 0000000111010100
lru: 0000
reuse bit: 1
trace: 1803
valid: 1
********
sampler set details
set index: 1387
partial tag: 0000000000000000
lru: 0000
reuse bit: 0
trace: 0
valid: 0
********
sampler set details
set index: 132
partial tag: 0000000000000000
lru: 0000
reuse bit: 0
trace: 0
valid: 0
********
sampler set details
set index: 1321
partial tag: 0000000000000000
lru: 0000
reuse bit: 0
trace: 0
valid: 0
********
sampler set details
set index: 66
partial tag: 0000000000000000
lru: 0000
reuse bit: 0
trace: 0
valid: 0
********
sampler set details
set index: 1255
partial tag: 0000000000000000
lru: 0000
reuse bit: 0
trace: 0
valid: 0
********
sampler set details
set index: 0
partial tag: 0000000000000000
lru: 0000
reuse bit: 0
trace: 0
valid: 0
********
sampler set details
set index: 1189
partial tag: 0000000111010011
lru: 0000
reuse bit: 1
trace: 1184
valid: 1
********
sampler set details
set index: 858
partial tag: 0000000111010011
lru: 0000
reuse bit: 1
trace: 856
valid: 1
********
sampler set details
set index: 924
partial tag: 0000000111010100
lru: 0000
reuse bit: 1
trace: 1949
valid: 1
********
sampler set details
set index: 990
partial tag: 0000000000000000
lru: 0000
reuse bit: 0
trace: 0
valid: 0
********
sampler set details
set index: 1057
partial tag: 0000000000000000
lru: 0000
reuse bit: 0
trace: 0
valid: 0
********
sampler set details
set index: 1123
partial tag: 0000000000000000
lru: 0000
reuse bit: 0
trace: 0
valid: 0
********
sampler set details
set index: 2047
partial tag: 0000000000000000
lru: 0000
reuse bit: 0
trace: 0
valid: 0
********
sampler set details
set index: 1981
partial tag: 0000000111010100
lru: 0000
reuse bit: 1
trace: 1976
valid: 1
********
sampler set details
set index: 1915
partial tag: 0000000111010100
lru: 0000
reuse bit: 1
trace: 1797
valid: 1
********
sampler set details
set index: 792
partial tag: 0000000111010011
lru: 0000
reuse bit: 1
trace: 768
valid: 1
********
sampler set details
set index: 726
partial tag: 0000000111010011
lru: 0000
reuse bit: 1
trace: 949
valid: 1
********
sampler set details
set index: 660
partial tag: 0000000111010100
lru: 0000
reuse bit: 1
trace: 1297
valid: 1
********
sampler set details
set index: 1849
partial tag: 0000000000000000
lru: 0000
reuse bit: 0
trace: 0
valid: 0
********
sampler set details
set index: 594
partial tag: 0000000000000000
lru: 0000
reuse bit: 0
trace: 0
valid: 0
********
sampler set details
set index: 1783
partial tag: 0000000000000000
lru: 0000
reuse bit: 0
trace: 0
valid: 0
********
sampler set details
set index: 528
partial tag: 0000000000000000
lru: 0000
reuse bit: 0
trace: 0
valid: 0
********
sampler set details
set index: 1717
partial tag: 0000000000000000
lru: 0000
reuse bit: 0
trace: 0
valid: 0
********
sampler set details
set index: 462
partial tag: 0000000111010011
lru: 0000
reuse bit: 1
trace: 739
valid: 1
********
sampler set details
set index: 1651
partial tag: 0000000111010100
lru: 0000
reuse bit: 1
trace: 1954
valid: 1
********
sampler set details
set index: 396
partial tag: 0000000000000000
lru: 0000
reuse bit: 0
trace: 0
valid: 0
********
sampler set details
set index: 1585
partial tag: 0000000000000000
lru: 0000
reuse bit: 0
trace: 0
valid: 0
********
sampler set details
set index: 330
partial tag: 0000000111010100
lru: 0000
reuse bit: 1
trace: 1170
valid: 1
********
sampler set details
set index: 1519
partial tag: 0000000000000000
lru: 0000
reuse bit: 0
trace: 0
valid: 0
********
sampler set details
set index: 264
partial tag: 0000000111010100
lru: 0000
reuse bit: 1
trace: 1797
valid: 1
********
sampler set details
set index: 1453
partial tag: 0000000000000000
lru: 0000
reuse bit: 0
trace: 0
valid: 0
********
sampler set details
set index: 198
partial tag: 0000000111010100
lru: 0000
reuse bit: 1
trace: 1803
valid: 1
********
sampler set details
set index: 1387
partial tag: 0000000000000000
lru: 0000
reuse bit: 0
trace: 0
valid: 0
********
sampler set details
set index: 132
partial tag: 0000000000000000
lru: 0000
reuse bit: 0
trace: 0
valid: 0
********
sampler set details
set index: 1321
partial tag: 0000000000000000
lru: 0000
reuse bit: 0
trace: 0
valid: 0
********
sampler set details
set index: 66
partial tag: 0000000000000000
lru: 0000
reuse bit: 0
trace: 0
valid: 0
********
sampler set details
set index: 1255
partial tag: 0000000000000000
lru: 0000
reuse bit: 0
trace: 0
valid: 0
********
sampler set details
set index: 0
partial tag: 0000000000000000
lru: 0000
reuse bit: 0
trace: 0
valid: 0
********
sampler set details
set index: 1189
partial tag: 0000000111010011
lru: 0000
reuse bit: 1
trace: 1184
valid: 1
********
sampler set details
set index: 858
partial tag: 0000000111010011
lru: 0000
reuse bit: 1
trace: 856
valid: 1
********
sampler set details
set index: 924
partial tag: 0000000111010100
lru: 0000
reuse bit: 1
trace: 1949
valid: 1
********
sampler set details
set index: 990
partial tag: 0000000000000000
lru: 0000
reuse bit: 0
trace: 0
valid: 0
********
sampler set details
set index: 1057
partial tag: 0000000000000000
lru: 0000
reuse bit: 0
trace: 0
valid: 0
********
sampler set details
set index: 1123
partial tag: 0000000000000000
lru: 0000
reuse bit: 0
trace: 0
valid: 0
********
sampler set details
set index: 2047
partial tag: 0000000000000000
lru: 0000
reuse bit: 0
trace: 0
valid: 0
********
sampler set details
set index: 1981
partial tag: 0000000111010100
lru: 0000
reuse bit: 1
trace: 1976
valid: 1
********
sampler set details
set index: 1915
partial tag: 0000000111010100
lru: 0000
reuse bit: 1
trace: 1797
valid: 1
********
sampler set details
set index: 792
partial tag: 0000000111010011
lru: 0000
reuse bit: 1
trace: 768
valid: 1
********
sampler set details
set index: 726
partial tag: 0000000111010011
lru: 0000
reuse bit: 1
trace: 949
valid: 1
********
sampler set details
set index: 660
partial tag: 0000000111010100
lru: 0000
reuse bit: 1
trace: 1297
valid: 1
********
sampler set details
set index: 1849
partial tag: 0000000000000000
lru: 0000
reuse bit: 0
trace: 0
valid: 0
********
sampler set details
set index: 594
partial tag: 0000000000000000
lru: 0000
reuse bit: 0
trace: 0
valid: 0
********
sampler set details
set index: 1783
partial tag: 0000000000000000
lru: 0000
reuse bit: 0
trace: 0
valid: 0
********
sampler set details
set index: 528
partial tag: 0000000000000000
lru: 0000
reuse bit: 0
trace: 0
valid: 0
********
sampler set details
set index: 1717
partial tag: 0000000000000000
lru: 0000
reuse bit: 0
trace: 0
valid: 0
********
sampler set details
set index: 462
partial tag: 0000000111010011
lru: 0000
reuse bit: 1
trace: 739
valid: 1
********
sampler set details
set index: 1651
partial tag: 0000000111010100
lru: 0000
reuse bit: 1
trace: 1954
valid: 1
********
sampler set details
set index: 396
partial tag: 0000000000000000
lru: 0000
reuse bit: 0
trace: 0
valid: 0
********
sampler set details
set index: 1585
partial tag: 0000000000000000
lru: 0000
reuse bit: 0
trace: 0
valid: 0
********
sampler set details
set index: 330
partial tag: 0000000111010100
lru: 0000
reuse bit: 1
trace: 1170
valid: 1
********
sampler set details
set index: 1519
partial tag: 0000000000000000
lru: 0000
reuse bit: 0
trace: 0
valid: 0
********
sampler set details
set index: 264
partial tag: 0000000111010100
lru: 0000
reuse bit: 1
trace: 1797
valid: 1
********
sampler set details
set index: 1453
partial tag: 0000000000000000
lru: 0000
reuse bit: 0
trace: 0
valid: 0
********
sampler set details
set index: 198
partial tag: 0000000111010100
lru: 0000
reuse bit: 1
trace: 1803
valid: 1
********
sampler set details
set index: 1387
partial tag: 0000000000000000
lru: 0000
reuse bit: 0
trace: 0
valid: 0
********
sampler set details
set index: 132
partial tag: 0000000000000000
lru: 0000
reuse bit: 0
trace: 0
valid: 0
********
sampler set details
set index: 1321
partial tag: 0000000000000000
lru: 0000
reuse bit: 0
trace: 0
valid: 0
********
sampler set details
set index: 66
partial tag: 0000000000000000
lru: 0000
reuse bit: 0
trace: 0
valid: 0
********
sampler set details
set index: 1255
partial tag: 0000000000000000
lru: 0000
reuse bit: 0
trace: 0
valid: 0
********
sampler set details
set index: 0
partial tag: 0000000000000000
lru: 0000
reuse bit: 0
trace: 0
valid: 0
********
sampler set details
set index: 1189
partial tag: 0000000111010011
lru: 0000
reuse bit: 1
trace: 1184
valid: 1
********
sampler set details
set index: 858
partial tag: 0000000111010011
lru: 0000
reuse bit: 1
trace: 856
valid: 1
********
sampler set details
set index: 924
partial tag: 0000000111010100
lru: 0000
reuse bit: 1
trace: 1949
valid: 1
********
sampler set details
set index: 990
partial tag: 0000000111010100
lru: 0000
reuse bit: 1
trace: 219
valid: 1
********
sampler set details
set index: 1057
partial tag: 0000000000000000
lru: 0000
reuse bit: 0
trace: 0
valid: 0
********
sampler set details
set index: 1123
partial tag: 0000000000000000
lru: 0000
reuse bit: 0
trace: 0
valid: 0
********
sampler set details
set index: 2047
partial tag: 0000000000000000
lru: 0000
reuse bit: 0
trace: 0
valid: 0
********
sampler set details
set index: 1981
partial tag: 0000000111010100
lru: 0000
reuse bit: 1
trace: 1976
valid: 1
********
sampler set details
set index: 1915
partial tag: 0000000111010100
lru: 0000
reuse bit: 1
trace: 1797
valid: 1
********
sampler set details
set index: 792
partial tag: 0000000111010011
lru: 0000
reuse bit: 1
trace: 768
valid: 1
********
sampler set details
set index: 726
partial tag: 0000000111010011
lru: 0000
reuse bit: 1
trace: 949
valid: 1
********
sampler set details
set index: 660
partial tag: 0000000111010100
lru: 0000
reuse bit: 1
trace: 1297
valid: 1
********
sampler set details
set index: 1849
partial tag: 0000000000000000
lru: 0000
reuse bit: 0
trace: 0
valid: 0
********
sampler set details
set index: 594
partial tag: 0000000000000000
lru: 0000
reuse bit: 0
trace: 0
valid: 0
********
sampler set details
set index: 1783
partial tag: 0000000000000000
lru: 0000
reuse bit: 0
trace: 0
valid: 0
********
sampler set details
set index: 528
partial tag: 0000000000000000
lru: 0000
reuse bit: 0
trace: 0
valid: 0
********
sampler set details
set index: 1717
partial tag: 0000000000000000
lru: 0000
reuse bit: 0
trace: 0
valid: 0
********
sampler set details
set index: 462
partial tag: 0000000111010011
lru: 0000
reuse bit: 1
trace: 739
valid: 1
********
sampler set details
set index: 1651
partial tag: 0000000111010100
lru: 0000
reuse bit: 1
trace: 1954
valid: 1
********
sampler set details
set index: 396
partial tag: 0000000000000000
lru: 0000
reuse bit: 0
trace: 0
valid: 0
********
sampler set details
set index: 1585
partial tag: 0000000000000000
lru: 0000
reuse bit: 0
trace: 0
valid: 0
********
sampler set details
set index: 330
partial tag: 0000000111010100
lru: 0000
reuse bit: 1
trace: 1170
valid: 1
********
sampler set details
set index: 1519
partial tag: 0000000000000000
lru: 0000
reuse bit: 0
trace: 0
valid: 0
********
sampler set details
set index: 264
partial tag: 0000000111010100
lru: 0000
reuse bit: 1
trace: 1797
valid: 1
********
sampler set details
set index: 1453
partial tag: 0000000000000000
lru: 0000
reuse bit: 0
trace: 0
valid: 0
********
sampler set details
set index: 198
partial tag: 0000000111010100
lru: 0000
reuse bit: 1
trace: 1803
valid: 1
********
sampler set details
set index: 1387
partial tag: 0000000000000000
lru: 0000
reuse bit: 0
trace: 0
valid: 0
********
sampler set details
set index: 132
partial tag: 0000000000000000
lru: 0000
reuse bit: 0
trace: 0
valid: 0
********
sampler set details
set index: 1321
partial tag: 0000000000000000
lru: 0000
reuse bit: 0
trace: 0
valid: 0
********
sampler set details
set index: 66
partial tag: 0000000000000000
lru: 0000
reuse bit: 0
trace: 0
valid: 0
********
sampler set details
set index: 1255
partial tag: 0000000000000000
lru: 0000
reuse bit: 0
trace: 0
valid: 0
********
sampler set details
set index: 0
partial tag: 0000000000000000
lru: 0000
reuse bit: 0
trace: 0
valid: 0
********
sampler set details
set index: 1189
partial tag: 0000000111010011
lru: 0000
reuse bit: 1
trace: 1184
valid: 1
********
sampler set details
set index: 858
partial tag: 0000000111010011
lru: 0000
reuse bit: 1
trace: 856
valid: 1
********
sampler set details
set index: 924
partial tag: 0000000111010100
lru: 0000
reuse bit: 1
trace: 1949
valid: 1
********
sampler set details
set index: 990
partial tag: 0000000111010100
lru: 0000
reuse bit: 1
trace: 1797
valid: 1
********
sampler set details
set index: 1057
partial tag: 0000000000000000
lru: 0000
reuse bit: 0
trace: 0
valid: 0
********
sampler set details
set index: 1123
partial tag: 0000000000000000
lru: 0000
reuse bit: 0
trace: 0
valid: 0
********
sampler set details
set index: 2047
partial tag: 0000000000000000
lru: 0000
reuse bit: 0
trace: 0
valid: 0
********
sampler set details
set index: 1981
partial tag: 0000000111010100
lru: 0000
reuse bit: 1
trace: 1976
valid: 1
********
sampler set details
set index: 1915
partial tag: 0000000111010100
lru: 0000
reuse bit: 1
trace: 1797
valid: 1
********
sampler set details
set index: 792
partial tag: 0000000111010011
lru: 0000
reuse bit: 1
trace: 768
valid: 1
********
sampler set details
set index: 726
partial tag: 0000000111010011
lru: 0000
reuse bit: 1
trace: 949
valid: 1
********
sampler set details
set index: 660
partial tag: 0000000111010100
lru: 0000
reuse bit: 1
trace: 1297
valid: 1
********
sampler set details
set index: 1849
partial tag: 0000000000000000
lru: 0000
reuse bit: 0
trace: 0
valid: 0
********
sampler set details
set index: 594
partial tag: 0000000000000000
lru: 0000
reuse bit: 0
trace: 0
valid: 0
********
sampler set details
set index: 1783
partial tag: 0000000000000000
lru: 0000
reuse bit: 0
trace: 0
valid: 0
********
sampler set details
set index: 528
partial tag: 0000000000000000
lru: 0000
reuse bit: 0
trace: 0
valid: 0
********
sampler set details
set index: 1717
partial tag: 0000000000000000
lru: 0000
reuse bit: 0
trace: 0
valid: 0
********
sampler set details
set index: 462
partial tag: 0000000111010011
lru: 0000
reuse bit: 1
trace: 739
valid: 1
********
sampler set details
set index: 1651
partial tag: 0000000111010100
lru: 0000
reuse bit: 1
trace: 1954
valid: 1
********
sampler set details
set index: 396
partial tag: 0000000000000000
lru: 0000
reuse bit: 0
trace: 0
valid: 0
********
sampler set details
set index: 1585
partial tag: 0000000000000000
lru: 0000
reuse bit: 0
trace: 0
valid: 0
********
sampler set details
set index: 330
partial tag: 0000000111010100
lru: 0000
reuse bit: 1
trace: 1170
valid: 1
********
sampler set details
set index: 1519
partial tag: 0000000000000000
lru: 0000
reuse bit: 0
trace: 0
valid: 0
********
sampler set details
set index: 264
partial tag: 0000000111010100
lru: 0000
reuse bit: 1
trace: 1797
valid: 1
********
sampler set details
set index: 1453
partial tag: 0000000000000000
lru: 0000
reuse bit: 0
trace: 0
valid: 0
********
sampler set details
set index: 198
partial tag: 0000000111010100
lru: 0000
reuse bit: 1
trace: 1803
valid: 1
********
sampler set details
set index: 1387
partial tag: 0000000000000000
lru: 0000
reuse bit: 0
trace: 0
valid: 0
********
sampler set details
set index: 132
partial tag: 0000000000000000
lru: 0000
reuse bit: 0
trace: 0
valid: 0
********
sampler set details
set index: 1321
partial tag: 0000000000000000
lru: 0000
reuse bit: 0
trace: 0
valid: 0
********
sampler set details
set index: 66
partial tag: 0000000000000000
lru: 0000
reuse bit: 0
trace: 0
valid: 0
********
sampler set details
set index: 1255
partial tag: 0000000000000000
lru: 0000
reuse bit: 0
trace: 0
valid: 0
********
sampler set details
set index: 0
partial tag: 0000000110010000
lru: 0000
reuse bit: 1
trace: 993
valid: 1
********
sampler set details
set index: 1189
partial tag: 0000000111010011
lru: 0000
reuse bit: 1
trace: 1184
valid: 1
********
sampler set details
set index: 858
partial tag: 0000000111010011
lru: 0000
reuse bit: 1
trace: 856
valid: 1
********
sampler set details
set index: 924
partial tag: 0000000111010100
lru: 0000
reuse bit: 1
trace: 1949
valid: 1
********
sampler set details
set index: 990
partial tag: 0000000111010100
lru: 0000
reuse bit: 1
trace: 1797
valid: 1
********
sampler set details
set index: 1057
partial tag: 0000000000000000
lru: 0000
reuse bit: 0
trace: 0
valid: 0
********
sampler set details
set index: 1123
partial tag: 0000000000000000
lru: 0000
reuse bit: 0
trace: 0
valid: 0
********
sampler set details
set index: 2047
partial tag: 0000000000000000
lru: 0000
reuse bit: 0
trace: 0
valid: 0
********
sampler set details
set index: 1981
partial tag: 0000000111010100
lru: 0000
reuse bit: 1
trace: 1976
valid: 1
********
sampler set details
set index: 1915
partial tag: 0000000111010100
lru: 0000
reuse bit: 1
trace: 1797
valid: 1
********
sampler set details
set index: 792
partial tag: 0000000111010011
lru: 0000
reuse bit: 1
trace: 768
valid: 1
********
sampler set details
set index: 726
partial tag: 0000000111010011
lru: 0000
reuse bit: 1
trace: 949
valid: 1
********
sampler set details
set index: 660
partial tag: 0000000111010100
lru: 0000
reuse bit: 1
trace: 1297
valid: 1
********
sampler set details
set index: 1849
partial tag: 0000000000000000
lru: 0000
reuse bit: 0
trace: 0
valid: 0
********
sampler set details
set index: 594
partial tag: 0000000000000000
lru: 0000
reuse bit: 0
trace: 0
valid: 0
********
sampler set details
set index: 1783
partial tag: 0000000000000000
lru: 0000
reuse bit: 0
trace: 0
valid: 0
********
sampler set details
set index: 528
partial tag: 0000000000000000
lru: 0000
reuse bit: 0
trace: 0
valid: 0
********
sampler set details
set index: 1717
partial tag: 0000000000000000
lru: 0000
reuse bit: 0
trace: 0
valid: 0
********
sampler set details
set index: 462
partial tag: 0000000111010011
lru: 0000
reuse bit: 1
trace: 739
valid: 1
********
sampler set details
set index: 1651
partial tag: 0000000111010100
lru: 0000
reuse bit: 1
trace: 1954
valid: 1
********
sampler set details
set index: 396
partial tag: 0000000000000000
lru: 0000
reuse bit: 0
trace: 0
valid: 0
********
sampler set details
set index: 1585
partial tag: 0000000000000000
lru: 0000
reuse bit: 0
trace: 0
valid: 0
********
sampler set details
set index: 330
partial tag: 0000000111010100
lru: 0000
reuse bit: 1
trace: 1170
valid: 1
********
sampler set details
set index: 1519
partial tag: 0000000111010100
lru: 0000
reuse bit: 1
trace: 1537
valid: 1
********
sampler set details
set index: 264
partial tag: 0000000111010100
lru: 0000
reuse bit: 1
trace: 1797
valid: 1
********
sampler set details
set index: 1453
partial tag: 0000000000000000
lru: 0000
reuse bit: 0
trace: 0
valid: 0
********
sampler set details
set index: 198
partial tag: 0000000111010100
lru: 0000
reuse bit: 1
trace: 1803
valid: 1
********
sampler set details
set index: 1387
partial tag: 0000000000000000
lru: 0000
reuse bit: 0
trace: 0
valid: 0
********
sampler set details
set index: 132
partial tag: 0000000000000000
lru: 0000
reuse bit: 0
trace: 0
valid: 0
********
sampler set details
set index: 1321
partial tag: 0000000000000000
lru: 0000
reuse bit: 0
trace: 0
valid: 0
********
sampler set details
set index: 66
partial tag: 0000000000000000
lru: 0000
reuse bit: 0
trace: 0
valid: 0
********
sampler set details
set index: 1255
partial tag: 0000000000000000
lru: 0000
reuse bit: 0
trace: 0
valid: 0
********
sampler set details
set index: 0
partial tag: 0000000110010000
lru: 0000
reuse bit: 1
trace: 993
valid: 1
********
sampler set details
set index: 1189
partial tag: 0000000111010011
lru: 0000
reuse bit: 1
trace: 1184
valid: 1
********
sampler set details
set index: 858
partial tag: 0000000111010011
lru: 0000
reuse bit: 1
trace: 856
valid: 1
********
sampler set details
set index: 924
partial tag: 0000000111010100
lru: 0000
reuse bit: 1
trace: 1949
valid: 1
********
sampler set details
set index: 990
partial tag: 0000000111010100
lru: 0000
reuse bit: 1
trace: 1797
valid: 1
********
sampler set details
set index: 1057
partial tag: 0000000000000000
lru: 0000
reuse bit: 0
trace: 0
valid: 0
********
sampler set details
set index: 1123
partial tag: 0000000000000000
lru: 0000
reuse bit: 0
trace: 0
valid: 0
********
sampler set details
set index: 2047
partial tag: 0000000000000000
lru: 0000
reuse bit: 0
trace: 0
valid: 0
********
sampler set details
set index: 1981
partial tag: 0000000111010100
lru: 0000
reuse bit: 1
trace: 1976
valid: 1
********
sampler set details
set index: 1915
partial tag: 0000000111010100
lru: 0000
reuse bit: 1
trace: 1797
valid: 1
********
sampler set details
set index: 792
partial tag: 0000000111010011
lru: 0000
reuse bit: 1
trace: 768
valid: 1
********
sampler set details
set index: 726
partial tag: 0000000111010011
lru: 0000
reuse bit: 1
trace: 949
valid: 1
********
sampler set details
set index: 660
partial tag: 0000000111010100
lru: 0000
reuse bit: 1
trace: 1297
valid: 1
********
sampler set details
set index: 1849
partial tag: 0000000000000000
lru: 0000
reuse bit: 0
trace: 0
valid: 0
********
sampler set details
set index: 594
partial tag: 0000000000000000
lru: 0000
reuse bit: 0
trace: 0
valid: 0
********
sampler set details
set index: 1783
partial tag: 0000000000000000
lru: 0000
reuse bit: 0
trace: 0
valid: 0
********
sampler set details
set index: 528
partial tag: 0000000110010000
lru: 0000
reuse bit: 1
trace: 1954
valid: 1
********
sampler set details
set index: 1717
partial tag: 0000000000000000
lru: 0000
reuse bit: 0
trace: 0
valid: 0
********
sampler set details
set index: 462
partial tag: 0000000111010011
lru: 0000
reuse bit: 1
trace: 739
valid: 1
********
sampler set details
set index: 1651
partial tag: 0000000111010100
lru: 0000
reuse bit: 1
trace: 1954
valid: 1
********
sampler set details
set index: 396
partial tag: 0000000000000000
lru: 0000
reuse bit: 0
trace: 0
valid: 0
********
sampler set details
set index: 1585
partial tag: 0000000000000000
lru: 0000
reuse bit: 0
trace: 0
valid: 0
********
sampler set details
set index: 330
partial tag: 0000000111010100
lru: 0000
reuse bit: 1
trace: 1170
valid: 1
********
sampler set details
set index: 1519
partial tag: 0000000111010100
lru: 0000
reuse bit: 1
trace: 1537
valid: 1
********
sampler set details
set index: 264
partial tag: 0000000111010100
lru: 0000
reuse bit: 1
trace: 1797
valid: 1
********
sampler set details
set index: 1453
partial tag: 0000000000000000
lru: 0000
reuse bit: 0
trace: 0
valid: 0
********
sampler set details
set index: 198
partial tag: 0000000111010100
lru: 0000
reuse bit: 1
trace: 1803
valid: 1
********
sampler set details
set index: 1387
partial tag: 0000000000000000
lru: 0000
reuse bit: 0
trace: 0
valid: 0
********
sampler set details
set index: 132
partial tag: 0000000000000000
lru: 0000
reuse bit: 0
trace: 0
valid: 0
********
sampler set details
set index: 1321
partial tag: 0000000000000000
lru: 0000
reuse bit: 0
trace: 0
valid: 0
********
sampler set details
set index: 66
partial tag: 0000000000000000
lru: 0000
reuse bit: 0
trace: 0
valid: 0
********
sampler set details
set index: 1255
partial tag: 0000000000000000
lru: 0000
reuse bit: 0
trace: 0
valid: 0
********
sampler set details
set index: 0
partial tag: 0000000110010000
lru: 0000
reuse bit: 1
trace: 993
valid: 1
********
sampler set details
set index: 1189
partial tag: 0000000111010011
lru: 0000
reuse bit: 1
trace: 1184
valid: 1
********
sampler set details
set index: 858
partial tag: 0000000111010011
lru: 0000
reuse bit: 1
trace: 856
valid: 1
********
sampler set details
set index: 924
partial tag: 0000000111010100
lru: 0000
reuse bit: 1
trace: 1949
valid: 1
********
sampler set details
set index: 990
partial tag: 0000000111010100
lru: 0000
reuse bit: 1
trace: 1797
valid: 1
********
sampler set details
set index: 1057
partial tag: 0000000000000000
lru: 0000
reuse bit: 0
trace: 0
valid: 0
********
sampler set details
set index: 1123
partial tag: 0000000000000000
lru: 0000
reuse bit: 0
trace: 0
valid: 0
********
sampler set details
set index: 2047
partial tag: 0000000000000000
lru: 0000
reuse bit: 0
trace: 0
valid: 0
********
sampler set details
set index: 1981
partial tag: 0000000111010100
lru: 0000
reuse bit: 1
trace: 1976
valid: 1
********
sampler set details
set index: 1915
partial tag: 0000000111010100
lru: 0000
reuse bit: 1
trace: 1797
valid: 1
********
sampler set details
set index: 792
partial tag: 0000000111010011
lru: 0001
reuse bit: 1
trace: 768
valid: 1
********
sampler set details
set index: 726
partial tag: 0000000111010011
lru: 0000
reuse bit: 1
trace: 949
valid: 1
********
sampler set details
set index: 660
partial tag: 0000000111010100
lru: 0000
reuse bit: 1
trace: 1297
valid: 1
********
sampler set details
set index: 1849
partial tag: 0000000000000000
lru: 0000
reuse bit: 0
trace: 0
valid: 0
********
sampler set details
set index: 594
partial tag: 0000000000000000
lru: 0000
reuse bit: 0
trace: 0
valid: 0
********
sampler set details
set index: 1783
partial tag: 0000000000000000
lru: 0000
reuse bit: 0
trace: 0
valid: 0
********
sampler set details
set index: 528
partial tag: 0000000110010000
lru: 0000
reuse bit: 1
trace: 1954
valid: 1
********
sampler set details
set index: 1717
partial tag: 0000000000000000
lru: 0000
reuse bit: 0
trace: 0
valid: 0
********
sampler set details
set index: 462
partial tag: 0000000111010011
lru: 0000
reuse bit: 1
trace: 739
valid: 1
********
sampler set details
set index: 1651
partial tag: 0000000111010100
lru: 0000
reuse bit: 1
trace: 1954
valid: 1
********
sampler set details
set index: 396
partial tag: 0000000000000000
lru: 0000
reuse bit: 0
trace: 0
valid: 0
********
sampler set details
set index: 1585
partial tag: 0000000000000000
lru: 0000
reuse bit: 0
trace: 0
valid: 0
********
sampler set details
set index: 330
partial tag: 0000000111010100
lru: 0000
reuse bit: 1
trace: 1170
valid: 1
********
sampler set details
set index: 1519
partial tag: 0000000111010100
lru: 0000
reuse bit: 1
trace: 1537
valid: 1
********
sampler set details
set index: 264
partial tag: 0000000111010100
lru: 0000
reuse bit: 1
trace: 1797
valid: 1
********
sampler set details
set index: 1453
partial tag: 0000000000000000
lru: 0000
reuse bit: 0
trace: 0
valid: 0
********
sampler set details
set index: 198
partial tag: 0000000111010100
lru: 0000
reuse bit: 1
trace: 1803
valid: 1
********
sampler set details
set index: 1387
partial tag: 0000000000000000
lru: 0000
reuse bit: 0
trace: 0
valid: 0
********
sampler set details
set index: 132
partial tag: 0000000000000000
lru: 0000
reuse bit: 0
trace: 0
valid: 0
********
sampler set details
set index: 1321
partial tag: 0000000000000000
lru: 0000
reuse bit: 0
trace: 0
valid: 0
********
sampler set details
set index: 66
partial tag: 0000000000000000
lru: 0000
reuse bit: 0
trace: 0
valid: 0
********
sampler set details
set index: 1255
partial tag: 0000000000000000
lru: 0000
reuse bit: 0
trace: 0
valid: 0
********
sampler set details
set index: 0
partial tag: 0000000110010000
lru: 0000
reuse bit: 1
trace: 993
valid: 1
********
sampler set details
set index: 1189
partial tag: 0000000111010011
lru: 0000
reuse bit: 1
trace: 1184
valid: 1
********
sampler set details
set index: 858
partial tag: 0000000111010011
lru: 0000
reuse bit: 1
trace: 856
valid: 1
********
sampler set details
set index: 924
partial tag: 0000000111010100
lru: 0000
reuse bit: 1
trace: 1949
valid: 1
********
sampler set details
set index: 990
partial tag: 0000000111010100
lru: 0000
reuse bit: 1
trace: 1797
valid: 1
********
sampler set details
set index: 1057
partial tag: 0000000000000000
lru: 0000
reuse bit: 0
trace: 0
valid: 0
********
sampler set details
set index: 1123
partial tag: 0000000000000000
lru: 0000
reuse bit: 0
trace: 0
valid: 0
********
sampler set details
set index: 2047
partial tag: 0000000000000000
lru: 0000
reuse bit: 0
trace: 0
valid: 0
********
sampler set details
set index: 1981
partial tag: 0000000111010100
lru: 0000
reuse bit: 1
trace: 1976
valid: 1
********
sampler set details
set index: 1915
partial tag: 0000000111010100
lru: 0000
reuse bit: 1
trace: 1797
valid: 1
********
sampler set details
set index: 792
partial tag: 0000000111010011
lru: 0001
reuse bit: 1
trace: 768
valid: 1
********
sampler set details
set index: 726
partial tag: 0000000111010011
lru: 0000
reuse bit: 1
trace: 949
valid: 1
********
sampler set details
set index: 660
partial tag: 0000000111010100
lru: 0000
reuse bit: 1
trace: 1297
valid: 1
********
sampler set details
set index: 1849
partial tag: 0000000000000000
lru: 0000
reuse bit: 0
trace: 0
valid: 0
********
sampler set details
set index: 594
partial tag: 0000000000000000
lru: 0000
reuse bit: 0
trace: 0
valid: 0
********
sampler set details
set index: 1783
partial tag: 0000000000000000
lru: 0000
reuse bit: 0
trace: 0
valid: 0
********
sampler set details
set index: 528
partial tag: 0000000110010000
lru: 0000
reuse bit: 1
trace: 1954
valid: 1
********
sampler set details
set index: 1717
partial tag: 0000000000000000
lru: 0000
reuse bit: 0
trace: 0
valid: 0
********
sampler set details
set index: 462
partial tag: 0000000111010011
lru: 0000
reuse bit: 1
trace: 739
valid: 1
********
sampler set details
set index: 1651
partial tag: 0000000111010100
lru: 0000
reuse bit: 1
trace: 1954
valid: 1
********
sampler set details
set index: 396
partial tag: 0000000000000000
lru: 0000
reuse bit: 0
trace: 0
valid: 0
********
[...]
valid: 1
********
sampler set details
set index: 1255
partial tag: 0000001011010001
lru: 0111
reuse bit: 1
trace: 1451
valid: 1
********
sampler set details
set index: 0
partial tag: 0000000110010000
lru: 0000
reuse bit: 1
trace: 625
valid: 1
********
sampler set details
set index: 1189
partial tag: 0000000111010011
lru: 0010
reuse bit: 1
trace: 1328
valid: 1
********
sampler set details
set index: 858
partial tag: 0000000111010011
lru: 0110
reuse bit: 1
trace: 856
valid: 1
********
sampler set details
set index: 924
partial tag: 0000000111010100
lru: 0010
reuse bit: 1
trace: 712
valid: 1
********
sampler set details
set index: 990
partial tag: 0000000111010100
lru: 0000
reuse bit: 1
trace: 331
valid: 1
********
sampler set details
set index: 1057
partial tag: 0000000110000001
lru: 1010
reuse bit: 1
trace: 1803
valid: 1
********
sampler set details
set index: 1123
partial tag: 0000000100110111
lru: 0011
reuse bit: 1
trace: 712
valid: 1
********
sampler set details
set index: 2047
partial tag: 0000000110010000
lru: 1001
reuse bit: 1
trace: 1797
valid: 1
********
sampler set details
set index: 1981
partial tag: 0000000111010100
lru: 0100
reuse bit: 1
trace: 1576
valid: 1
********
sampler set details
set index: 1915
partial tag: 0000000111010100
lru: 1011
reuse bit: 1
trace: 1797
valid: 1
********
sampler set details
set index: 792
partial tag: 0000000111010011
lru: 0001
reuse bit: 1
trace: 331
valid: 1
********
sampler set details
set index: 726
partial tag: 0000000111010011
lru: 0110
reuse bit: 1
trace: 537
valid: 1
********
sampler set details
set index: 660
partial tag: 0000000111010100
lru: 0000
reuse bit: 1
trace: 1478
valid: 1
********
sampler set details
set index: 1849
partial tag: 0000001100011110
lru: 0100
reuse bit: 1
trace: 198
valid: 1
********
sampler set details
set index: 594
partial tag: 0000001100011111
lru: 1001
reuse bit: 1
trace: 2004
valid: 1
********
sampler set details
set index: 1783
partial tag: 0000001110000001
lru: 0100
reuse bit: 1
trace: 712
valid: 1
********
sampler set details
set index: 528
partial tag: 0000000110010000
lru: 1001
reuse bit: 1
trace: 1607
valid: 1
********
sampler set details
set index: 1717
partial tag: 0000000001010110
lru: 0100
reuse bit: 1
trace: 712
valid: 1
********
sampler set details
set index: 462
partial tag: 0000000111010011
lru: 0101
reuse bit: 1
trace: 883
valid: 1
********
sampler set details
set index: 1651
partial tag: 0000000111010100
lru: 0110
reuse bit: 1
trace: 1607
valid: 1
********
sampler set details
set index: 396
partial tag: 0000001100011110
lru: 1011
reuse bit: 1
trace: 1391
valid: 1
********
sampler set details
set index: 1585
partial tag: 0000000110010000
lru: 0101
reuse bit: 1
trace: 1425
valid: 1
********
sampler set details
set index: 330
partial tag: 0000000111010100
lru: 1000
reuse bit: 1
trace: 1170
valid: 1
********
sampler set details
set index: 1519
partial tag: 0000000111010100
lru: 0000
reuse bit: 1
trace: 1963
valid: 1
********
sampler set details
set index: 264
partial tag: 0000000111010100
lru: 0011
reuse bit: 1
trace: 544
valid: 1
********
sampler set details
set index: 1453
partial tag: 0000000110010000
lru: 0111
reuse bit: 1
trace: 1797
valid: 1
********
sampler set details
set index: 198
partial tag: 0000000111010100
lru: 1000
reuse bit: 1
trace: 1803
valid: 1
********
sampler set details
set index: 1387
partial tag: 0000000110000000
lru: 0101
reuse bit: 1
trace: 1905
valid: 1
********
sampler set details
set index: 132
partial tag: 0000000100110111
lru: 1001
reuse bit: 1
trace: 1156
valid: 1
********
sampler set details
set index: 1321
partial tag: 0000000110010000
lru: 0110
reuse bit: 1
trace: 1607
valid: 1
********
sampler set details
set index: 66
partial tag: 0000000110010000
lru: 0111
reuse bit: 1
trace: 1797
valid: 1
********
sampler set details
set index: 1255
partial tag: 0000001011010001
lru: 0111
reuse bit: 1
trace: 1451
valid: 1
********
sampler set details
set index: 0
partial tag: 0000000110010000
lru: 0000
reuse bit: 1
trace: 625
valid: 1
********
sampler set details
set index: 1189
partial tag: 0000000111010011
lru: 0010
reuse bit: 1
trace: 1328
valid: 1
********
sampler set details
set index: 858
partial tag: 0000000111010011
lru: 0110
reuse bit: 1
trace: 856
valid: 1
********
sampler set details
set index: 924
partial tag: 0000000111010100
lru: 0010
reuse bit: 1
trace: 712
valid: 1
********
sampler set details
set index: 990
partial tag: 0000000111010100
lru: 0000
reuse bit: 1
trace: 331
valid: 1
********
sampler set details
set index: 1057
partial tag: 0000000110000001
lru: 1010
reuse bit: 1
trace: 1803
valid: 1
********
sampler set details
set index: 1123
partial tag: 0000000100110111
lru: 0011
reuse bit: 1
trace: 712
valid: 1
********
sampler set details
set index: 2047
partial tag: 0000000110010000
lru: 1001
reuse bit: 1
trace: 1797
valid: 1
********
sampler set details
set index: 1981
partial tag: 0000000111010100
lru: 0100
reuse bit: 1
trace: 1576
valid: 1
********
sampler set details
set index: 1915
partial tag: 0000000111010100
lru: 1011
reuse bit: 1
trace: 1797
valid: 1
********
sampler set details
set index: 792
partial tag: 0000000111010011
lru: 0001
reuse bit: 1
trace: 331
valid: 1
********
sampler set details
set index: 726
partial tag: 0000000111010011
lru: 0110
reuse bit: 1
trace: 537
valid: 1
********
sampler set details
set index: 660
partial tag: 0000000111010100
lru: 0000
reuse bit: 1
trace: 1478
valid: 1
********
sampler set details
set index: 1849
partial tag: 0000001100011110
lru: 0100
reuse bit: 1
trace: 198
valid: 1
********
sampler set details
set index: 594
partial tag: 0000001100011111
lru: 1001
reuse bit: 1
trace: 2004
valid: 1
********
sampler set details
set index: 1783
partial tag: 0000001110000001
lru: 0100
reuse bit: 1
trace: 712
valid: 1
********
sampler set details
set index: 528
partial tag: 0000000110010000
lru: 1001
reuse bit: 1
trace: 1607
valid: 1
********
sampler set details
set index: 1717
partial tag: 0000000001010110
lru: 0100
reuse bit: 1
trace: 712
valid: 1
********
sampler set details
set index: 462
partial tag: 0000000111010011
lru: 0101
reuse bit: 1
trace: 883
valid: 1
********
sampler set details
set index: 1651
partial tag: 0000000111010100
lru: 0110
reuse bit: 1
trace: 1607
valid: 1
********
sampler set details
set index: 396
partial tag: 0000001100011110
lru: 1011
reuse bit: 1
trace: 1391
valid: 1
********
sampler set details
set index: 1585
partial tag: 0000000110010000
lru: 0101
reuse bit: 1
trace: 1425
valid: 1
********
sampler set details
set index: 330
partial tag: 0000000111010100
lru: 1000
reuse bit: 1
trace: 1170
valid: 1
********
sampler set details
set index: 1519
partial tag: 0000000111010100
lru: 0000
reuse bit: 1
trace: 1963
valid: 1
********
sampler set details
set index: 264
partial tag: 0000000111010100
lru: 0011
reuse bit: 1
trace: 544
valid: 1
********
sampler set details
set index: 1453
partial tag: 0000000110010000
lru: 1000
reuse bit: 1
trace: 1797
valid: 1
********
sampler set details
set index: 198
partial tag: 0000000111010100
lru: 1000
reuse bit: 1
trace: 1803
valid: 1
********
sampler set details
set index: 1387
partial tag: 0000000110000000
lru: 0101
reuse bit: 1
trace: 1905
valid: 1
********
sampler set details
set index: 132
partial tag: 0000000100110111
lru: 1001
reuse bit: 1
trace: 1156
valid: 1
********
sampler set details
set index: 1321
partial tag: 0000000110010000
lru: 0110
reuse bit: 1
trace: 1607
valid: 1
********
sampler set details
set index: 66
partial tag: 0000000110010000
lru: 0111
reuse bit: 1
trace: 1797
valid: 1
********
sampler set details
set index: 1255
partial tag: 0000001011010001
lru: 0111
reuse bit: 1
trace: 1451
valid: 1
********
sampler set details
set index: 0
partial tag: 0000000110010000
lru: 0000
reuse bit: 1
trace: 625
valid: 1
********
sampler set details
set index: 1189
partial tag: 0000000111010011
lru: 0010
reuse bit: 1
trace: 1328
valid: 1
********
sampler set details
set index: 858
partial tag: 0000000111010011
lru: 0110
reuse bit: 1
trace: 856
valid: 1
********
sampler set details
set index: 924
partial tag: 0000000111010100
lru: 0010
reuse bit: 1
trace: 712
valid: 1
********
sampler set details
set index: 990
partial tag: 0000000111010100
lru: 0000
reuse bit: 1
trace: 331
valid: 1
********
sampler set details
set index: 1057
partial tag: 0000000110000001
lru: 1010
reuse bit: 1
trace: 1803
valid: 1
********
sampler set details
set index: 1123
partial tag: 0000000100110111
lru: 0011
reuse bit: 1
trace: 712
valid: 1
********
sampler set details
set index: 2047
partial tag: 0000000110010000
lru: 1001
reuse bit: 1
trace: 1797
valid: 1
********
sampler set details
set index: 1981
partial tag: 0000000111010100
lru: 0101
reuse bit: 1
trace: 1576
valid: 1
********
sampler set details
set index: 1915
partial tag: 0000000111010100
lru: 1011
reuse bit: 1
trace: 1797
valid: 1
********
sampler set details
set index: 792
partial tag: 0000000111010011
lru: 0001
reuse bit: 1
trace: 331
valid: 1
********
sampler set details
set index: 726
partial tag: 0000000111010011
lru: 0110
reuse bit: 1
trace: 537
valid: 1
********
sampler set details
set index: 660
partial tag: 0000000111010100
lru: 0000
reuse bit: 1
trace: 1478
valid: 1
********
sampler set details
set index: 1849
partial tag: 0000001100011110
lru: 0100
reuse bit: 1
trace: 198
valid: 1
********
sampler set details
set index: 594
partial tag: 0000001100011111
lru: 1001
reuse bit: 1
trace: 2004
valid: 1
********
sampler set details
set index: 1783
partial tag: 0000001110000001
lru: 0100
reuse bit: 1
trace: 712
valid: 1
********
sampler set details
set index: 528
partial tag: 0000000110010000
lru: 1001
reuse bit: 1
trace: 1607
valid: 1
********
sampler set details
set index: 1717
partial tag: 0000000001010110
lru: 0100
reuse bit: 1
trace: 712
valid: 1
********
sampler set details
set index: 462
partial tag: 0000000111010011
lru: 0101
reuse bit: 1
trace: 883
valid: 1
********
sampler set details
set index: 1651
partial tag: 0000000111010100
lru: 0110
reuse bit: 1
trace: 1607
valid: 1
********
sampler set details
set index: 396
partial tag: 0000001100011110
lru: 1011
reuse bit: 1
trace: 1391
valid: 1
********
sampler set details
set index: 1585
partial tag: 0000000110010000
lru: 0101
reuse bit: 1
trace: 1425
valid: 1
********
sampler set details
set index: 330
partial tag: 0000000111010100
lru: 1000
reuse bit: 1
trace: 1170
valid: 1
********
sampler set details
set index: 1519
partial tag: 0000000111010100
lru: 0000
reuse bit: 1
trace: 1963
valid: 1
********
sampler set details
set index: 264
partial tag: 0000000111010100
lru: 0011
reuse bit: 1
trace: 544
valid: 1
********
sampler set details
set index: 1453
partial tag: 0000000110010000
lru: 1000
reuse bit: 1
trace: 1797
valid: 1
********
sampler set details
set index: 198
partial tag: 0000000111010100
lru: 1000
reuse bit: 1
trace: 1803
valid: 1
********
sampler set details
set index: 1387
partial tag: 0000000110000000
lru: 0101
reuse bit: 1
trace: 1905
valid: 1
********
sampler set details
set index: 132
partial tag: 0000000100110111
lru: 1001
reuse bit: 1
trace: 1156
valid: 1
********
sampler set details
set index: 1321
partial tag: 0000000110010000
lru: 0110
reuse bit: 1
trace: 1607
valid: 1
********
sampler set details
set index: 66
partial tag: 0000000110010000
lru: 0111
reuse bit: 1
trace: 1797
valid: 1
********
sampler set details
set index: 1255
partial tag: 0000001011010001
lru: 0111
reuse bit: 1
trace: 1451
valid: 1
********
sampler set details
set index: 0
partial tag: 0000000110010000
lru: 0000
reuse bit: 1
trace: 625
valid: 1
********
sampler set details
set index: 1189
partial tag: 0000000111010011
lru: 0010
reuse bit: 1
trace: 1328
valid: 1
********
sampler set details
set index: 858
partial tag: 0000000111010011
lru: 0110
reuse bit: 1
trace: 856
valid: 1
********
sampler set details
set index: 924
partial tag: 0000000111010100
lru: 0010
reuse bit: 1
trace: 712
valid: 1
********
sampler set details
set index: 990
partial tag: 0000000111010100
lru: 0000
reuse bit: 1
trace: 331
valid: 1
********
sampler set details
set index: 1057
partial tag: 0000000110000001
lru: 1010
reuse bit: 1
trace: 1803
valid: 1
********
sampler set details
set index: 1123
partial tag: 0000000100110111
lru: 0011
reuse bit: 1
trace: 712
valid: 1
********
sampler set details
set index: 2047
partial tag: 0000000110010000
lru: 1001
reuse bit: 1
trace: 1797
valid: 1
********
sampler set details
set index: 1981
partial tag: 0000000111010100
lru: 0101
reuse bit: 1
trace: 1576
valid: 1
********
sampler set details
set index: 1915
partial tag: 0000000111010100
lru: 1011
reuse bit: 1
trace: 1797
valid: 1
********
sampler set details
set index: 792
partial tag: 0000000111010011
lru: 0001
reuse bit: 1
trace: 331
valid: 1
********
sampler set details
set index: 726
partial tag: 0000000111010011
lru: 0110
reuse bit: 1
trace: 537
valid: 1
********
sampler set details
set index: 660
partial tag: 0000000111010100
lru: 0000
reuse bit: 1
trace: 1478
valid: 1
********
sampler set details
set index: 1849
partial tag: 0000001100011110
lru: 0100
reuse bit: 1
trace: 198
valid: 1
********
sampler set details
set index: 594
partial tag: 0000001100011111
lru: 1001
reuse bit: 1
trace: 2004
valid: 1
********
sampler set details
set index: 1783
partial tag: 0000001110000001
lru: 0100
reuse bit: 1
trace: 712
valid: 1
********
sampler set details
set index: 528
partial tag: 0000000110010000
lru: 1001
reuse bit: 1
trace: 1607
valid: 1
********
sampler set details
set index: 1717
partial tag: 0000000001010110
lru: 0100
reuse bit: 1
trace: 712
valid: 1
********
sampler set details
set index: 462
partial tag: 0000000111010011
lru: 0101
reuse bit: 1
trace: 883
valid: 1
********
sampler set details
set index: 1651
partial tag: 0000000111010100
lru: 0110
reuse bit: 1
trace: 1607
valid: 1
********
sampler set details
set index: 396
partial tag: 0000001100011110
lru: 1011
reuse bit: 1
trace: 1391
valid: 1
********
sampler set details
set index: 1585
partial tag: 0000000110010000
lru: 0101
reuse bit: 1
trace: 1425
valid: 1
********
sampler set details
set index: 330
partial tag: 0000000111010100
lru: 1000
reuse bit: 1
trace: 1170
valid: 1
********
sampler set details
set index: 1519
partial tag: 0000000111010100
lru: 0000
reuse bit: 1
trace: 1963
valid: 1
********
sampler set details
set index: 264
partial tag: 0000000111010100
lru: 0011
reuse bit: 1
trace: 544
valid: 1
********
sampler set details
set index: 1453
partial tag: 0000000110010000
lru: 1000
reuse bit: 1
trace: 1797
valid: 1
********
sampler set details
set index: 198
partial tag: 0000000111010100
lru: 1000
reuse bit: 1
trace: 1803
valid: 1
********
sampler set details
set index: 1387
partial tag: 0000000110000000
lru: 0101
reuse bit: 1
trace: 1905
valid: 1
********
sampler set details
set index: 132
partial tag: 0000000100110111
lru: 1001
reuse bit: 1
trace: 1156
valid: 1
********
sampler set details
set index: 1321
partial tag: 0000000110010000
lru: 0110
reuse bit: 1
trace: 1607
valid: 1
********
sampler set details
set index: 66
partial tag: 0000000110010000
lru: 0111
reuse bit: 1
trace: 1797
valid: 1
********
sampler set details
set index: 1255
partial tag: 0000001011010001
lru: 0111
reuse bit: 1
trace: 1451
valid: 1
********
sampler set details
set index: 0
partial tag: 0000000110010000
lru: 0000
reuse bit: 1
trace: 625
valid: 1
********
sampler set details
set index: 1189
partial tag: 0000000111010011
lru: 0010
reuse bit: 1
trace: 1328
valid: 1
********
sampler set details
set index: 858
partial tag: 0000000111010011
lru: 0110
reuse bit: 1
trace: 856
valid: 1
********
sampler set details
set index: 924
partial tag: 0000000111010100
lru: 0011
reuse bit: 1
trace: 712
valid: 1
********
sampler set details
set index: 990
partial tag: 0000000111010100
lru: 0000
reuse bit: 1
trace: 331
valid: 1
********
sampler set details
set index: 1057
partial tag: 0000000110000001
lru: 1010
reuse bit: 1
trace: 1803
valid: 1
********
sampler set details
set index: 1123
partial tag: 0000000100110111
lru: 0011
reuse bit: 1
trace: 712
valid: 1
********
Finished CPU 0 instructions: 10000001 cycles: 26467471 cumulative IPC: 0.377822 (Simulation time: 0 hr 0 min 19 sec) 

CPU 0 Branch Prediction Accuracy: 96.4097% MPKI: 7.9118

ChampSim completed all CPUs

Region of Interest Statistics

CPU 0 cumulative IPC: 0.377822 instructions: 10000001 cycles: 26467471
L1D TOTAL     ACCESS:    3239017  HIT:    3137187  MISS:     101830
L1D LOAD      ACCESS:    2085247  HIT:    2001762  MISS:      83485
L1D RFO       ACCESS:    1153770  HIT:    1135425  MISS:      18345
L1D PREFETCH  ACCESS:          0  HIT:          0  MISS:          0
L1D WRITEBACK ACCESS:          0  HIT:          0  MISS:          0
L1D PREFETCH  REQUESTED:          0  ISSUED:          0  FILLED:          0  USEFUL:          0  USELESS:          0
L1I TOTAL     ACCESS:    3128587  HIT:    3113155  MISS:      15432
L1I LOAD      ACCESS:    3128587  HIT:    3113155  MISS:      15432
L1I RFO       ACCESS:          0  HIT:          0  MISS:          0
L1I PREFETCH  ACCESS:          0  HIT:          0  MISS:          0
L1I WRITEBACK ACCESS:          0  HIT:          0  MISS:          0
L1I PREFETCH  REQUESTED:          0  ISSUED:          0  FILLED:          0  USEFUL:          0  USELESS:          0
L2C TOTAL     ACCESS:     150788  HIT:     110096  MISS:      40692
L2C LOAD      ACCESS:      98915  HIT:      74414  MISS:      24501
L2C RFO       ACCESS:      18345  HIT:       2216  MISS:      16129
L2C PREFETCH  ACCESS:          0  HIT:          0  MISS:          0
L2C WRITEBACK ACCESS:      33528  HIT:      33466  MISS:         62
L2C PREFETCH  REQUESTED:          0  ISSUED:          0  FILLED:          0  USEFUL:          0  USELESS:          0
LLC TOTAL     ACCESS:      67376  HIT:      42861  MISS:      24515
LLC LOAD      ACCESS:      24501  HIT:      12397  MISS:      12104
LLC RFO       ACCESS:      16129  HIT:       3718  MISS:      12411
LLC PREFETCH  ACCESS:          0  HIT:          0  MISS:          0
LLC WRITEBACK ACCESS:      26746  HIT:      26746  MISS:          0
LLC PREFETCH  REQUESTED:          0  ISSUED:          0  FILLED:          0  USEFUL:          0  USELESS:          0
DTLB TOTAL     ACCESS:    3335556  HIT:    3240251  MISS:      95305
DTLB LOAD      ACCESS:    2264845  HIT:    2177131  MISS:      87714
DTLB RFO       ACCESS:    1070711  HIT:    1063120  MISS:       7591
DTLB PREFETCH  ACCESS:          0  HIT:          0  MISS:          0
DTLB WRITEBACK ACCESS:          0  HIT:          0  MISS:          0
DTLB PREFETCH  REQUESTED:          0  ISSUED:          0  FILLED:          0  USEFUL:          0  USELESS:          0
ITLB TOTAL     ACCESS:    2489877  HIT:    2475774  MISS:      14103
ITLB LOAD      ACCESS:    2489877  HIT:    2475774  MISS:      14103
ITLB RFO       ACCESS:          0  HIT:          0  MISS:          0
ITLB PREFETCH  ACCESS:          0  HIT:          0  MISS:          0
ITLB WRITEBACK ACCESS:          0  HIT:          0  MISS:          0
ITLB PREFETCH  REQUESTED:          0  ISSUED:          0  FILLED:          0  USEFUL:          0  USELESS:          0
STLB TOTAL     ACCESS:     109408  HIT:      98117  MISS:      11291
STLB LOAD      ACCESS:     101817  HIT:      93130  MISS:       8687
STLB RFO       ACCESS:       7591  HIT:       4987  MISS:       2604
STLB PREFETCH  ACCESS:          0  HIT:          0  MISS:          0
STLB WRITEBACK ACCESS:          0  HIT:          0  MISS:          0
STLB PREFETCH  REQUESTED:          0  ISSUED:          0  FILLED:          0  USEFUL:          0  USELESS:          0
Major fault: 0 Minor fault: 5383

Invalid block evictions: 27069
DBP Decisions: 5
Mockingjay Decisions: 1166
Writeback MKJ Decisions: 1

DB Predictions in [0,9]: 
0 46184
3 6
6 1
9 15


DRAM Statistics
 CHANNEL 0
 RQ ROW_BUFFER_HIT:      11547  ROW_BUFFER_MISS:      12958
 DBUS_CONGESTED:       9228
 WQ ROW_BUFFER_HIT:         65  ROW_BUFFER_MISS:       1015  FULL:          0

 AVG_CONGESTED_CYCLE: 12
